CHEMBL3220317
 OpenBabel04072215363D

 72 74  0  0  0  0  0  0  0  0999 V2000
    2.3443   -1.2973   -0.9472 C   0  0  0  0  0  0  0  0  0  0  0  0
    3.3548   -0.4452   -0.4203 O   0  0  0  0  0  0  0  0  0  0  0  0
    3.5716   -0.4593    0.9329 C   0  0  0  0  0  0  0  0  0  0  0  0
    3.2104   -1.5307    1.7646 C   0  0  0  0  0  0  0  0  0  0  0  0
    3.6546   -1.6520    3.1089 C   0  0  0  0  0  0  0  0  0  0  0  0
    3.4162   -2.9135    3.8910 C   0  0  0  0  0  0  0  0  0  0  0  0
    3.3891   -4.1177    3.1566 C   0  0  0  0  0  0  0  0  0  0  0  0
    3.1774   -5.3815    3.7048 C   0  0  0  0  0  0  0  0  0  0  0  0
    3.0830   -6.5506    2.9012 N   0  0  0  0  0  0  0  0  0  0  0  0
    3.2197   -6.5812    1.5208 C   0  0  0  0  0  0  0  0  0  0  0  0
    3.5002   -5.6183    0.8145 O   0  0  0  0  0  0  0  0  0  0  0  0
    2.9541   -7.8328    0.9766 N   0  0  0  0  0  0  0  0  0  0  0  0
    3.0813   -7.9951   -0.4287 C   0  0  0  0  0  0  0  0  0  0  0  0
    4.2097   -7.5147   -1.1044 C   0  0  0  0  0  0  0  0  0  0  0  0
    4.2674   -7.5317   -2.4984 C   0  0  0  0  0  0  0  0  0  0  0  0
    3.1981   -8.0407   -3.2354 C   0  0  0  0  0  0  0  0  0  0  0  0
    3.1181   -8.0358   -4.6046 O   0  0  0  0  0  0  0  0  0  0  0  0
    4.3819   -8.1044   -5.2786 C   0  0  0  0  0  0  0  0  0  0  0  0
    4.1552   -8.1644   -6.7991 C   0  0  0  0  0  0  0  0  0  0  0  0
    5.4065   -8.2599   -7.5809 N   0  0  0  0  0  0  0  0  0  0  0  0
    6.1300   -9.5039   -7.3102 C   0  0  0  0  0  0  0  0  0  0  0  0
    5.1177   -8.1593   -9.0136 C   0  0  0  0  0  0  0  0  0  0  0  0
    2.0856   -8.5505   -2.5588 C   0  0  0  0  0  0  0  0  0  0  0  0
    2.0365   -8.5576   -1.1580 C   0  0  0  0  0  0  0  0  0  0  0  0
    3.0313   -5.4670    5.0840 C   0  0  0  0  0  0  0  0  0  0  0  0
    3.0915   -4.3022    5.8761 C   0  0  0  0  0  0  0  0  0  0  0  0
    2.8675   -4.3965    7.2301 O   0  0  0  0  0  0  0  0  0  0  0  0
    3.6783   -5.3681    7.8903 C   0  0  0  0  0  0  0  0  0  0  0  0
    3.2619   -3.0216    5.2905 C   0  0  0  0  0  0  0  0  0  0  0  0
    3.2305   -1.8370    5.9873 O   0  0  0  0  0  0  0  0  0  0  0  0
    3.7343   -1.8389    7.3178 C   0  0  0  0  0  0  0  0  0  0  0  0
    4.4338   -0.5987    3.6079 C   0  0  0  0  0  0  0  0  0  0  0  0
    4.7324    0.5184    2.8167 C   0  0  0  0  0  0  0  0  0  0  0  0
    4.2949    0.6010    1.4830 C   0  0  0  0  0  0  0  0  0  0  0  0
    4.6087    1.8562    0.7227 C   0  0  0  0  0  0  0  0  0  0  0  0
    3.6136    2.3629   -0.3080 C   0  0  0  0  0  0  0  0  0  0  0  0
    5.7004    2.5102    1.0107 N   0  0  0  0  0  0  0  0  0  0  0  0
    5.8171    3.6753    0.2428 O   0  0  0  0  0  0  0  0  0  0  0  0
    2.2608   -1.0827   -2.0174 H   0  0  0  0  0  0  0  0  0  0  0  0
    1.3786   -1.0769   -0.4842 H   0  0  0  0  0  0  0  0  0  0  0  0
    2.6092   -2.3536   -0.8455 H   0  0  0  0  0  0  0  0  0  0  0  0
    2.6105   -2.3345    1.3442 H   0  0  0  0  0  0  0  0  0  0  0  0
    3.5611   -4.0277    2.0932 H   0  0  0  0  0  0  0  0  0  0  0  0
    2.9912   -7.4383    3.3739 H   0  0  0  0  0  0  0  0  0  0  0  0
    2.1838   -8.3172    1.4129 H   0  0  0  0  0  0  0  0  0  0  0  0
    5.0390   -7.0727   -0.5550 H   0  0  0  0  0  0  0  0  0  0  0  0
    5.1393   -7.0931   -2.9717 H   0  0  0  0  0  0  0  0  0  0  0  0
    4.9002   -9.0053   -4.9333 H   0  0  0  0  0  0  0  0  0  0  0  0
    4.9867   -7.2165   -5.0646 H   0  0  0  0  0  0  0  0  0  0  0  0
    3.6262   -7.2432   -7.0809 H   0  0  0  0  0  0  0  0  0  0  0  0
    3.4692   -8.9867   -7.0413 H   0  0  0  0  0  0  0  0  0  0  0  0
    6.4980   -9.5306   -6.2799 H   0  0  0  0  0  0  0  0  0  0  0  0
    7.0218   -9.5790   -7.9427 H   0  0  0  0  0  0  0  0  0  0  0  0
    5.5083  -10.3892   -7.4839 H   0  0  0  0  0  0  0  0  0  0  0  0
    4.6351   -7.2038   -9.2464 H   0  0  0  0  0  0  0  0  0  0  0  0
    4.4701   -8.9714   -9.3630 H   0  0  0  0  0  0  0  0  0  0  0  0
    6.0470   -8.1867   -9.5947 H   0  0  0  0  0  0  0  0  0  0  0  0
    1.2392   -8.9264   -3.1280 H   0  0  0  0  0  0  0  0  0  0  0  0
    1.1438   -8.9272   -0.6641 H   0  0  0  0  0  0  0  0  0  0  0  0
    2.8453   -6.4266    5.5526 H   0  0  0  0  0  0  0  0  0  0  0  0
    3.8650   -5.0103    8.9080 H   0  0  0  0  0  0  0  0  0  0  0  0
    4.6505   -5.5113    7.4049 H   0  0  0  0  0  0  0  0  0  0  0  0
    3.1384   -6.3170    7.9599 H   0  0  0  0  0  0  0  0  0  0  0  0
    4.0539   -0.8191    7.5547 H   0  0  0  0  0  0  0  0  0  0  0  0
    4.6104   -2.4864    7.4352 H   0  0  0  0  0  0  0  0  0  0  0  0
    2.9420   -2.0995    8.0255 H   0  0  0  0  0  0  0  0  0  0  0  0
    4.8526   -0.6400    4.6122 H   0  0  0  0  0  0  0  0  0  0  0  0
    5.3326    1.3200    3.2422 H   0  0  0  0  0  0  0  0  0  0  0  0
    2.6899    1.7842   -0.3392 H   0  0  0  0  0  0  0  0  0  0  0  0
    4.0785    2.3529   -1.2984 H   0  0  0  0  0  0  0  0  0  0  0  0
    3.3240    3.3874   -0.0556 H   0  0  0  0  0  0  0  0  0  0  0  0
    6.6483    4.0609    0.5731 H   0  0  0  0  0  0  0  0  0  0  0  0
  1  2  1  0  0  0  0
  1 39  1  0  0  0  0
  1 40  1  0  0  0  0
  1 41  1  0  0  0  0
  2  3  1  0  0  0  0
  3  4  1  0  0  0  0
  3 34  2  0  0  0  0
  4  5  2  0  0  0  0
  4 42  1  0  0  0  0
  5  6  1  0  0  0  0
  5 32  1  0  0  0  0
  6  7  1  0  0  0  0
  6 29  2  0  0  0  0
  7  8  2  0  0  0  0
  7 43  1  0  0  0  0
  8  9  1  0  0  0  0
  8 25  1  0  0  0  0
  9 10  1  0  0  0  0
  9 44  1  0  0  0  0
 10 11  2  0  0  0  0
 10 12  1  0  0  0  0
 12 13  1  0  0  0  0
 12 45  1  0  0  0  0
 13 14  1  0  0  0  0
 13 24  2  0  0  0  0
 14 15  2  0  0  0  0
 14 46  1  0  0  0  0
 15 16  1  0  0  0  0
 15 47  1  0  0  0  0
 16 17  1  0  0  0  0
 16 23  2  0  0  0  0
 17 18  1  0  0  0  0
 18 19  1  0  0  0  0
 18 48  1  0  0  0  0
 18 49  1  0  0  0  0
 19 20  1  0  0  0  0
 19 50  1  0  0  0  0
 19 51  1  0  0  0  0
 20 21  1  0  0  0  0
 20 22  1  0  0  0  0
 21 52  1  0  0  0  0
 21 53  1  0  0  0  0
 21 54  1  0  0  0  0
 22 55  1  0  0  0  0
 22 56  1  0  0  0  0
 22 57  1  0  0  0  0
 23 24  1  0  0  0  0
 23 58  1  0  0  0  0
 24 59  1  0  0  0  0
 25 26  2  0  0  0  0
 25 60  1  0  0  0  0
 26 27  1  0  0  0  0
 26 29  1  0  0  0  0
 27 28  1  0  0  0  0
 28 61  1  0  0  0  0
 28 62  1  0  0  0  0
 28 63  1  0  0  0  0
 29 30  1  0  0  0  0
 30 31  1  0  0  0  0
 31 64  1  0  0  0  0
 31 65  1  0  0  0  0
 31 66  1  0  0  0  0
 32 33  2  0  0  0  0
 32 67  1  0  0  0  0
 33 34  1  0  0  0  0
 33 68  1  0  0  0  0
 34 35  1  0  0  0  0
 35 36  1  0  0  0  0
 35 37  2  0  0  0  0
 36 69  1  0  0  0  0
 36 70  1  0  0  0  0
 36 71  1  0  0  0  0
 37 38  1  0  0  0  0
 38 72  1  0  0  0  0
M  END
$$$$
