CHEMBL3980266
 OpenBabel04072215373D

 54 56  0  0  0  0  0  0  0  0999 V2000
    2.3786   -0.3878   -0.9204 C   0  0  0  0  0  0  0  0  0  0  0  0
    0.8839   -0.3315   -1.0746 C   0  0  0  0  0  0  0  0  0  0  0  0
    0.3048    0.8134   -1.6292 C   0  0  0  0  0  0  0  0  0  0  0  0
   -1.0703    0.8867   -1.7817 C   0  0  0  0  0  0  0  0  0  0  0  0
   -1.8770   -0.1796   -1.3752 C   0  0  0  0  0  0  0  0  0  0  0  0
   -1.3382   -1.3394   -0.8034 C   0  0  0  0  0  0  0  0  0  0  0  0
   -2.1477   -2.4311   -0.3467 N   0  0  0  0  0  0  0  0  0  0  0  0
   -3.5365   -2.4441   -0.3601 C   0  0  0  0  0  0  0  0  0  0  0  0
   -4.2163   -1.5129   -0.7738 O   0  0  0  0  0  0  0  0  0  0  0  0
   -4.1062   -3.6066    0.1631 N   0  0  0  0  0  0  0  0  0  0  0  0
   -5.5225   -3.8227    0.1887 C   0  0  0  0  0  0  0  0  0  0  0  0
   -6.3787   -3.1638   -0.7078 C   0  0  0  0  0  0  0  0  0  0  0  0
   -7.7646   -3.2614   -0.6032 C   0  0  0  0  0  0  0  0  0  0  0  0
   -8.3250   -4.0623    0.3785 C   0  0  0  0  0  0  0  0  0  0  0  0
   -7.5008   -4.7944    1.2401 C   0  0  0  0  0  0  0  0  0  0  0  0
   -8.1560   -5.6372    2.2043 C   0  0  0  0  0  0  0  0  0  0  0  0
   -8.8294   -6.3308    2.9215 C   0  0  0  0  0  0  0  0  0  0  0  0
   -9.6471   -7.2162    3.7019 C   0  0  0  0  0  0  0  0  0  0  0  0
   -9.0807   -7.9625    4.7282 C   0  0  0  0  0  0  0  0  0  0  0  0
   -9.7448   -8.9101    5.4333 N   0  0  0  0  0  0  0  0  0  0  0  0
  -11.0501   -9.1033    5.1153 C   0  0  0  0  0  0  0  0  0  0  0  0
  -11.7308   -8.3732    4.1481 C   0  0  0  0  0  0  0  0  0  0  0  0
  -13.1863   -8.6489    3.9186 C   0  0  0  0  0  0  0  0  0  0  0  0
  -13.7562   -9.3568    4.7434 O   0  0  0  0  0  0  0  0  0  0  0  0
  -13.8203   -8.2017    2.7496 N   0  0  0  0  0  0  0  0  0  0  0  0
  -15.3247   -7.8613    2.7311 S   0  0  0  0  0  0  0  0  0  0  0  0
  -16.2798   -9.3648    2.6365 C   0  0  0  0  0  0  0  0  0  0  0  0
  -15.6378   -7.1546    1.1287 C   0  0  0  0  0  0  0  0  0  0  0  0
  -15.9765   -6.9970    3.6872 O   0  0  0  0  0  0  0  0  0  0  0  0
  -11.0064   -7.4130    3.4228 C   0  0  0  0  0  0  0  0  0  0  0  0
   -6.0976   -4.6863    1.1390 C   0  0  0  0  0  0  0  0  0  0  0  0
    0.0583   -1.4070   -0.6697 C   0  0  0  0  0  0  0  0  0  0  0  0
    2.8482    0.5406   -1.2679 H   0  0  0  0  0  0  0  0  0  0  0  0
    2.7929   -1.2071   -1.5150 H   0  0  0  0  0  0  0  0  0  0  0  0
    2.6472   -0.5173    0.1314 H   0  0  0  0  0  0  0  0  0  0  0  0
    0.9152    1.6556   -1.9476 H   0  0  0  0  0  0  0  0  0  0  0  0
   -1.5313    1.7714   -2.2149 H   0  0  0  0  0  0  0  0  0  0  0  0
   -2.9381   -0.0421   -1.5354 H   0  0  0  0  0  0  0  0  0  0  0  0
   -1.6610   -3.2382    0.0148 H   0  0  0  0  0  0  0  0  0  0  0  0
   -3.5461   -4.1475    0.8054 H   0  0  0  0  0  0  0  0  0  0  0  0
   -5.9933   -2.5421   -1.5118 H   0  0  0  0  0  0  0  0  0  0  0  0
   -8.3964   -2.6950   -1.2828 H   0  0  0  0  0  0  0  0  0  0  0  0
   -9.4064   -4.1185    0.4639 H   0  0  0  0  0  0  0  0  0  0  0  0
   -8.0409   -7.8275    5.0155 H   0  0  0  0  0  0  0  0  0  0  0  0
  -11.5367   -9.8999    5.6746 H   0  0  0  0  0  0  0  0  0  0  0  0
  -15.8321  -10.0408    1.9047 H   0  0  0  0  0  0  0  0  0  0  0  0
  -17.2976   -9.1077    2.3265 H   0  0  0  0  0  0  0  0  0  0  0  0
  -16.3174   -9.8323    3.6225 H   0  0  0  0  0  0  0  0  0  0  0  0
  -15.1776   -7.7819    0.3630 H   0  0  0  0  0  0  0  0  0  0  0  0
  -15.2059   -6.1508    1.1121 H   0  0  0  0  0  0  0  0  0  0  0  0
  -16.7168   -7.0942    0.9727 H   0  0  0  0  0  0  0  0  0  0  0  0
  -11.4979   -6.8333    2.6450 H   0  0  0  0  0  0  0  0  0  0  0  0
   -5.4701   -5.2490    1.8233 H   0  0  0  0  0  0  0  0  0  0  0  0
    0.5284   -2.2895   -0.2416 H   0  0  0  0  0  0  0  0  0  0  0  0
  1  2  1  0  0  0  0
  1 33  1  0  0  0  0
  1 34  1  0  0  0  0
  1 35  1  0  0  0  0
  2  3  1  0  0  0  0
  2 32  2  0  0  0  0
  3  4  2  0  0  0  0
  3 36  1  0  0  0  0
  4  5  1  0  0  0  0
  4 37  1  0  0  0  0
  5  6  2  0  0  0  0
  5 38  1  0  0  0  0
  6  7  1  0  0  0  0
  6 32  1  0  0  0  0
  7  8  1  0  0  0  0
  7 39  1  0  0  0  0
  8  9  2  0  0  0  0
  8 10  1  0  0  0  0
 10 11  1  0  0  0  0
 10 40  1  0  0  0  0
 11 12  1  0  0  0  0
 11 31  2  0  0  0  0
 12 13  2  0  0  0  0
 12 41  1  0  0  0  0
 13 14  1  0  0  0  0
 13 42  1  0  0  0  0
 14 15  2  0  0  0  0
 14 43  1  0  0  0  0
 15 16  1  0  0  0  0
 15 31  1  0  0  0  0
 16 17  3  0  0  0  0
 17 18  1  0  0  0  0
 18 19  1  0  0  0  0
 18 30  2  0  0  0  0
 19 20  2  0  0  0  0
 19 44  1  0  0  0  0
 20 21  1  0  0  0  0
 21 22  2  0  0  0  0
 21 45  1  0  0  0  0
 22 23  1  0  0  0  0
 22 30  1  0  0  0  0
 23 24  2  0  0  0  0
 23 25  1  0  0  0  0
 25 26  2  0  0  0  0
 26 27  1  0  0  0  0
 26 28  1  0  0  0  0
 26 29  2  0  0  0  0
 27 46  1  0  0  0  0
 27 47  1  0  0  0  0
 27 48  1  0  0  0  0
 28 49  1  0  0  0  0
 28 50  1  0  0  0  0
 28 51  1  0  0  0  0
 30 52  1  0  0  0  0
 31 53  1  0  0  0  0
 32 54  1  0  0  0  0
M  END
$$$$
