CHEMBL3671561
 OpenBabel04072215373D

 49 52  0  0  1  0  0  0  0  0999 V2000
    2.3619   -1.3530    1.9114 C   0  0  0  0  0  0  0  0  0  0  0  0
    3.0115   -0.7409    0.9074 C   0  0  0  0  0  0  0  0  0  0  0  0
    3.8688   -1.5435    0.0008 C   0  0  0  0  0  0  0  0  0  0  0  0
    4.1167   -2.7192    0.2573 O   0  0  0  0  0  0  0  0  0  0  0  0
    4.2815   -0.8695   -1.1452 N   0  0  0  0  0  0  0  0  0  0  0  0
    5.0568   -1.5562   -2.1107 C   0  0  0  0  0  0  0  0  0  0  0  0
    6.1421   -2.3074   -1.6390 C   0  0  0  0  0  0  0  0  0  0  0  0
    6.8456   -3.1939   -2.4743 C   0  0  0  0  0  0  0  0  0  0  0  0
    7.8775   -4.0441   -2.0540 C   0  0  0  0  0  0  0  0  0  0  0  0
    8.2410   -4.0521   -0.6944 N   0  0  0  0  0  0  0  0  0  0  0  0
    9.5025   -4.3082   -0.1290 C   0  0  0  0  0  0  0  0  0  0  0  0
   10.6885   -4.0404   -0.8217 C   0  0  0  0  0  0  0  0  0  0  0  0
   11.9220   -4.0961   -0.1717 C   0  0  0  0  0  0  0  0  0  0  0  0
   11.9788   -4.4435    1.1779 C   0  0  0  0  0  0  0  0  0  0  0  0
   13.6325   -4.3792    2.0872 Br  0  0  0  0  0  0  0  0  0  0  0  0
   10.8233   -4.7870    1.8686 C   0  0  0  0  0  0  0  0  0  0  0  0
    9.5979   -4.7112    1.2096 C   0  0  0  0  0  0  0  0  0  0  0  0
    8.4775   -5.0043    1.8901 F   0  0  0  0  0  0  0  0  0  0  0  0
    8.5263   -4.8550   -2.9070 N   0  0  0  0  0  0  0  0  0  0  0  0
    8.1102   -4.8410   -4.1761 C   0  0  0  0  0  0  0  0  0  0  0  0
    7.1384   -4.0729   -4.6790 N   0  0  0  0  0  0  0  0  0  0  0  0
    6.5200   -3.2570   -3.8230 C   0  0  0  0  0  0  0  0  0  0  0  0
    5.5055   -2.4395   -4.2998 C   0  0  0  0  0  0  0  0  0  0  0  0
    4.7491   -1.5807   -3.4789 C   0  0  0  0  0  0  0  0  0  0  0  0
    3.6781   -0.8398   -3.9600 O   0  0  0  0  0  0  0  0  0  0  0  0
    3.3715   -1.0941   -5.3485 C   0  0  0  0  0  0  0  0  0  0  0  0
    2.2056   -0.2689   -5.8956 C   0  0  3  0  0  0  0  0  0  0  0  0
    0.8696   -0.5793   -5.2571 C   0  0  0  0  0  0  0  0  0  0  0  0
    0.3286   -1.5528   -6.1422 N   0  0  0  0  0  0  0  0  0  0  0  0
    0.9210   -1.4519   -7.3644 C   0  0  0  0  0  0  0  0  0  0  0  0
    0.5416   -2.0071   -8.3925 O   0  0  0  0  0  0  0  0  0  0  0  0
    2.0070   -0.6212   -7.2841 O   0  0  0  0  0  0  0  0  0  0  0  0
    1.7363   -0.7973    2.6032 H   0  0  0  0  0  0  0  0  0  0  0  0
    2.4343   -2.4286    2.0682 H   0  0  0  0  0  0  0  0  0  0  0  0
    2.9438    0.3264    0.7644 H   0  0  0  0  0  0  0  0  0  0  0  0
    3.7930   -0.0323   -1.4333 H   0  0  0  0  0  0  0  0  0  0  0  0
    6.4332   -2.2179   -0.5927 H   0  0  0  0  0  0  0  0  0  0  0  0
    7.4590   -4.2761   -0.0831 H   0  0  0  0  0  0  0  0  0  0  0  0
   10.6578   -3.7358   -1.8652 H   0  0  0  0  0  0  0  0  0  0  0  0
   12.8221   -3.8375   -0.7219 H   0  0  0  0  0  0  0  0  0  0  0  0
   10.8465   -5.0810    2.9103 H   0  0  0  0  0  0  0  0  0  0  0  0
    8.6018   -5.5188   -4.8640 H   0  0  0  0  0  0  0  0  0  0  0  0
    5.3080   -2.5451   -5.3616 H   0  0  0  0  0  0  0  0  0  0  0  0
    3.1498   -2.1618   -5.4905 H   0  0  0  0  0  0  0  0  0  0  0  0
    4.2425   -0.8329   -5.9648 H   0  0  0  0  0  0  0  0  0  0  0  0
    2.4344    0.7986   -5.8252 H   0  0  0  0  0  0  0  0  0  0  0  0
    0.2120    0.2957   -5.2935 H   0  0  0  0  0  0  0  0  0  0  0  0
    0.9226   -0.9570   -4.2347 H   0  0  0  0  0  0  0  0  0  0  0  0
   -0.5954   -1.9707   -6.0840 H   0  0  0  0  0  0  0  0  0  0  0  0
  1  2  2  0  0  0  0
  1 33  1  0  0  0  0
  1 34  1  0  0  0  0
  2  3  1  0  0  0  0
  2 35  1  0  0  0  0
  3  4  2  0  0  0  0
  3  5  1  0  0  0  0
  5  6  1  0  0  0  0
  5 36  1  0  0  0  0
  6  7  1  0  0  0  0
  6 24  2  0  0  0  0
  7  8  2  0  0  0  0
  7 37  1  0  0  0  0
  8  9  1  0  0  0  0
  8 22  1  0  0  0  0
  9 10  1  0  0  0  0
  9 19  2  0  0  0  0
 10 11  1  0  0  0  0
 10 38  1  0  0  0  0
 11 12  1  0  0  0  0
 11 17  2  0  0  0  0
 12 13  2  0  0  0  0
 12 39  1  0  0  0  0
 13 14  1  0  0  0  0
 13 40  1  0  0  0  0
 14 15  1  0  0  0  0
 14 16  2  0  0  0  0
 16 17  1  0  0  0  0
 16 41  1  0  0  0  0
 17 18  1  0  0  0  0
 19 20  1  0  0  0  0
 20 21  2  0  0  0  0
 20 42  1  0  0  0  0
 21 22  1  0  0  0  0
 22 23  2  0  0  0  0
 23 24  1  0  0  0  0
 23 43  1  0  0  0  0
 24 25  1  0  0  0  0
 25 26  1  0  0  0  0
 26 27  1  0  0  0  0
 26 44  1  0  0  0  0
 26 45  1  0  0  0  0
 27 28  1  0  0  0  0
 27 32  1  0  0  0  0
 27 46  1  0  0  0  0
 28 29  1  0  0  0  0
 28 47  1  0  0  0  0
 28 48  1  0  0  0  0
 29 30  1  0  0  0  0
 29 49  1  0  0  0  0
 30 31  2  0  0  0  0
 30 32  1  0  0  0  0
M  END
$$$$
