CHEMBL1940867
 OpenBabel04072215363D

 33 35  0  0  0  0  0  0  0  0999 V2000
   -1.4714    2.6966    0.0077 C   0  0  0  0  0  0  0  0  0  0  0  0
   -1.7232    1.2118    0.0071 C   0  0  0  0  0  0  0  0  0  0  0  0
   -3.0406    0.7280    0.0013 C   0  0  0  0  0  0  0  0  0  0  0  0
   -3.2848   -0.6423   -0.0018 C   0  0  0  0  0  0  0  0  0  0  0  0
   -2.2142   -1.5344   -0.0090 C   0  0  0  0  0  0  0  0  0  0  0  0
   -0.8922   -1.0608   -0.0079 C   0  0  0  0  0  0  0  0  0  0  0  0
    0.2108   -1.9378   -0.0286 C   0  0  0  0  0  0  0  0  0  0  0  0
    1.5252   -1.4500   -0.0291 C   0  0  0  0  0  0  0  0  0  0  0  0
    2.6250   -2.4346   -0.0424 C   0  0  0  0  0  0  0  0  0  0  0  0
    3.8034   -2.2443   -0.6591 C   0  0  0  0  0  0  0  0  0  0  0  0
    4.9020   -3.2596   -0.6316 C   0  0  0  0  0  0  0  0  0  0  0  0
    4.6368   -4.4404   -0.4190 O   0  0  0  0  0  0  0  0  0  0  0  0
    6.2381   -2.7420   -0.8973 C   0  0  0  0  0  0  0  0  0  0  0  0
    6.7754   -1.5051   -0.5731 C   0  0  0  0  0  0  0  0  0  0  0  0
    8.1113   -1.3473   -1.0491 C   0  0  0  0  0  0  0  0  0  0  0  0
    8.5310   -2.4741   -1.7058 C   0  0  0  0  0  0  0  0  0  0  0  0
   10.0570   -2.7012   -2.4633 Cl  0  0  0  0  0  0  0  0  0  0  0  0
    7.3819   -3.7139   -1.7296 S   0  0  0  0  0  0  0  0  0  0  0  0
    1.6446   -0.0608    0.0402 C   0  0  0  0  0  0  0  0  0  0  0  0
    3.1436    0.7802    0.2055 Cl  0  0  0  0  0  0  0  0  0  0  0  0
    0.6117    0.8108    0.0408 N   0  0  0  0  0  0  0  0  0  0  0  0
   -0.6395    0.3273    0.0090 C   0  0  0  0  0  0  0  0  0  0  0  0
   -2.4074    3.2651    0.0009 H   0  0  0  0  0  0  0  0  0  0  0  0
   -0.9025    2.9843   -0.8830 H   0  0  0  0  0  0  0  0  0  0  0  0
   -0.9128    2.9858    0.9039 H   0  0  0  0  0  0  0  0  0  0  0  0
   -3.8800    1.4197    0.0022 H   0  0  0  0  0  0  0  0  0  0  0  0
   -4.3066   -1.0117   -0.0015 H   0  0  0  0  0  0  0  0  0  0  0  0
   -2.4209   -2.6019   -0.0156 H   0  0  0  0  0  0  0  0  0  0  0  0
    0.0331   -3.0122   -0.0495 H   0  0  0  0  0  0  0  0  0  0  0  0
    2.4341   -3.3777    0.4683 H   0  0  0  0  0  0  0  0  0  0  0  0
    4.0295   -1.3423   -1.2138 H   0  0  0  0  0  0  0  0  0  0  0  0
    6.2422   -0.7418   -0.0162 H   0  0  0  0  0  0  0  0  0  0  0  0
    8.7174   -0.4587   -0.9178 H   0  0  0  0  0  0  0  0  0  0  0  0
  1  2  1  0  0  0  0
  1 23  1  0  0  0  0
  1 24  1  0  0  0  0
  1 25  1  0  0  0  0
  2  3  1  0  0  0  0
  2 22  2  0  0  0  0
  3  4  2  0  0  0  0
  3 26  1  0  0  0  0
  4  5  1  0  0  0  0
  4 27  1  0  0  0  0
  5  6  2  0  0  0  0
  5 28  1  0  0  0  0
  6  7  1  0  0  0  0
  6 22  1  0  0  0  0
  7  8  2  0  0  0  0
  7 29  1  0  0  0  0
  8  9  1  0  0  0  0
  8 19  1  0  0  0  0
  9 10  2  0  0  0  0
  9 30  1  0  0  0  0
 10 11  1  0  0  0  0
 10 31  1  0  0  0  0
 11 12  2  0  0  0  0
 11 13  1  0  0  0  0
 13 14  2  0  0  0  0
 13 18  1  0  0  0  0
 14 15  1  0  0  0  0
 14 32  1  0  0  0  0
 15 16  2  0  0  0  0
 15 33  1  0  0  0  0
 16 17  1  0  0  0  0
 16 18  1  0  0  0  0
 19 20  1  0  0  0  0
 19 21  2  0  0  0  0
 21 22  1  0  0  0  0
M  END
$$$$
