CHEMBL404401
 OpenBabel04072215373D

 56 60  0  0  0  0  0  0  0  0999 V2000
    2.2733    1.3226    1.8245 C   0  0  0  0  0  0  0  0  0  0  0  0
    2.8824    0.2853    2.6281 N   0  0  0  0  0  0  0  0  0  0  0  0
    3.1991   -0.8591    1.9986 C   0  0  0  0  0  0  0  0  0  0  0  0
    3.4469   -1.0968    0.7319 N   0  0  0  0  0  0  0  0  0  0  0  0
    3.6569   -2.4506    0.6291 N   0  0  0  0  0  0  0  0  0  0  0  0
    3.5068   -2.9621    1.8354 C   0  0  0  0  0  0  0  0  0  0  0  0
    3.5919   -4.4238    2.1523 C   0  0  0  0  0  0  0  0  0  0  0  0
    3.3775   -4.9141    3.4134 C   0  0  0  0  0  0  0  0  0  0  0  0
    3.4886   -6.2679    3.3635 N   0  0  0  0  0  0  0  0  0  0  0  0
    3.2767   -7.0632    4.4198 N   0  0  0  0  0  0  0  0  0  0  0  0
    3.4778   -8.3156    4.1824 C   0  0  0  0  0  0  0  0  0  0  0  0
    3.8867   -8.8566    3.0021 N   0  0  0  0  0  0  0  0  0  0  0  0
    4.0830   -8.1011    1.9534 C   0  0  0  0  0  0  0  0  0  0  0  0
    4.4852   -8.7042    0.7805 N   0  0  0  0  0  0  0  0  0  0  0  0
    5.1485   -9.9600    0.7274 C   0  0  0  0  0  0  0  0  0  0  0  0
    6.1440  -10.3142    1.6484 C   0  0  0  0  0  0  0  0  0  0  0  0
    6.8101  -11.5530    1.5718 C   0  0  0  0  0  0  0  0  0  0  0  0
    7.8319  -11.8607    2.6127 C   0  0  0  0  0  0  0  0  0  0  0  0
    8.0383  -11.0499    3.5116 O   0  0  0  0  0  0  0  0  0  0  0  0
    8.5014  -13.0666    2.5251 N   0  0  0  0  0  0  0  0  0  0  0  0
    9.4270  -13.4866    3.5306 C   0  0  0  0  0  0  0  0  0  0  0  0
   10.8900  -13.1555    3.4274 C   0  0  0  0  0  0  0  0  0  0  0  0
   10.4282  -14.5718    3.2472 C   0  0  0  0  0  0  0  0  0  0  0  0
    6.4740  -12.4307    0.5394 C   0  0  0  0  0  0  0  0  0  0  0  0
    7.0757  -13.6240    0.4232 F   0  0  0  0  0  0  0  0  0  0  0  0
    5.5028  -12.0945   -0.4008 C   0  0  0  0  0  0  0  0  0  0  0  0
    4.8578  -10.8659   -0.3036 C   0  0  0  0  0  0  0  0  0  0  0  0
    3.9195  -10.5494   -1.2088 F   0  0  0  0  0  0  0  0  0  0  0  0
    3.8394   -6.6797    2.0955 C   0  0  0  0  0  0  0  0  0  0  0  0
    3.9018   -5.5381    1.2758 C   0  0  0  0  0  0  0  0  0  0  0  0
    4.2756   -5.3265   -0.1837 C   0  0  0  0  0  0  0  0  0  0  0  0
    5.7650   -5.0059   -0.3317 C   0  0  0  0  0  0  0  0  0  0  0  0
    3.8450   -6.3757   -1.1961 C   0  0  0  0  0  0  0  0  0  0  0  0
    3.2255   -1.9857    2.7664 O   0  0  0  0  0  0  0  0  0  0  0  0
    2.0833    2.2044    2.4434 H   0  0  0  0  0  0  0  0  0  0  0  0
    1.3148    0.9850    1.4144 H   0  0  0  0  0  0  0  0  0  0  0  0
    2.9254    1.6272    0.9984 H   0  0  0  0  0  0  0  0  0  0  0  0
    2.5033    0.1804    3.5609 H   0  0  0  0  0  0  0  0  0  0  0  0
    3.1489   -4.4232    4.3497 H   0  0  0  0  0  0  0  0  0  0  0  0
    3.3063   -9.0325    5.0044 H   0  0  0  0  0  0  0  0  0  0  0  0
    3.7783   -8.6410    0.0544 H   0  0  0  0  0  0  0  0  0  0  0  0
    6.4089   -9.6189    2.4446 H   0  0  0  0  0  0  0  0  0  0  0  0
    8.2674  -13.7196    1.7841 H   0  0  0  0  0  0  0  0  0  0  0  0
    8.9988  -13.4626    4.5311 H   0  0  0  0  0  0  0  0  0  0  0  0
   11.4092  -12.8974    4.3431 H   0  0  0  0  0  0  0  0  0  0  0  0
   11.2337  -12.6103    2.5567 H   0  0  0  0  0  0  0  0  0  0  0  0
   10.6392  -15.2795    4.0408 H   0  0  0  0  0  0  0  0  0  0  0  0
   10.4807  -14.9919    2.2506 H   0  0  0  0  0  0  0  0  0  0  0  0
    5.2493  -12.7835   -1.1985 H   0  0  0  0  0  0  0  0  0  0  0  0
    3.7270   -4.4410   -0.5211 H   0  0  0  0  0  0  0  0  0  0  0  0
    6.3883   -5.8193    0.0534 H   0  0  0  0  0  0  0  0  0  0  0  0
    6.0285   -4.0960    0.2192 H   0  0  0  0  0  0  0  0  0  0  0  0
    6.0271   -4.8390   -1.3822 H   0  0  0  0  0  0  0  0  0  0  0  0
    4.5000   -7.2454   -1.1946 H   0  0  0  0  0  0  0  0  0  0  0  0
    3.9209   -5.9580   -2.2093 H   0  0  0  0  0  0  0  0  0  0  0  0
    2.8062   -6.6839   -1.0467 H   0  0  0  0  0  0  0  0  0  0  0  0
  1  2  1  0  0  0  0
  1 35  1  0  0  0  0
  1 36  1  0  0  0  0
  1 37  1  0  0  0  0
  2  3  1  0  0  0  0
  2 38  1  0  0  0  0
  3  4  2  0  0  0  0
  3 34  1  0  0  0  0
  4  5  1  0  0  0  0
  5  6  2  0  0  0  0
  6  7  1  0  0  0  0
  6 34  1  0  0  0  0
  7  8  2  0  0  0  0
  7 30  1  0  0  0  0
  8  9  1  0  0  0  0
  8 39  1  0  0  0  0
  9 10  1  0  0  0  0
  9 29  1  0  0  0  0
 10 11  2  0  0  0  0
 11 12  1  0  0  0  0
 11 40  1  0  0  0  0
 12 13  2  0  0  0  0
 13 14  1  0  0  0  0
 13 29  1  0  0  0  0
 14 15  1  0  0  0  0
 14 41  1  0  0  0  0
 15 16  1  0  0  0  0
 15 27  2  0  0  0  0
 16 17  2  0  0  0  0
 16 42  1  0  0  0  0
 17 18  1  0  0  0  0
 17 24  1  0  0  0  0
 18 19  2  0  0  0  0
 18 20  1  0  0  0  0
 20 21  1  0  0  0  0
 20 43  1  0  0  0  0
 21 22  1  0  0  0  0
 21 23  1  0  0  0  0
 21 44  1  0  0  0  0
 22 23  1  0  0  0  0
 22 45  1  0  0  0  0
 22 46  1  0  0  0  0
 23 47  1  0  0  0  0
 23 48  1  0  0  0  0
 24 25  1  0  0  0  0
 24 26  2  0  0  0  0
 26 27  1  0  0  0  0
 26 49  1  0  0  0  0
 27 28  1  0  0  0  0
 29 30  2  0  0  0  0
 30 31  1  0  0  0  0
 31 32  1  0  0  0  0
 31 33  1  0  0  0  0
 31 50  1  0  0  0  0
 32 51  1  0  0  0  0
 32 52  1  0  0  0  0
 32 53  1  0  0  0  0
 33 54  1  0  0  0  0
 33 55  1  0  0  0  0
 33 56  1  0  0  0  0
M  END
$$$$
