CHEMBL1683645
 OpenBabel04072215363D

 62 64  0  0  1  0  0  0  0  0999 V2000
    8.7327    2.7252   -0.9049 C   0  0  0  0  0  0  0  0  0  0  0  0
    7.2933    2.6508   -1.3813 C   0  0  0  0  0  0  0  0  0  0  0  0
    6.5119    3.8997   -0.9815 C   0  0  0  0  0  0  0  0  0  0  0  0
    5.0712    3.8135   -1.4761 C   0  0  0  0  0  0  0  0  0  0  0  0
    4.2700    5.0474   -1.0692 C   0  0  0  0  0  0  0  0  0  0  0  0
    2.8354    5.0369   -1.6056 C   0  0  0  0  0  0  0  0  0  0  0  0
    2.0015    3.8042   -1.2144 C   0  0  3  0  0  0  0  0  0  0  0  0
    1.8531    3.6756    0.3198 C   0  0  0  0  0  0  0  0  0  0  0  0
    0.6030    3.8217   -1.8236 C   0  0  0  0  0  0  0  0  0  0  0  0
   -0.2295    4.9335   -1.6225 C   0  0  0  0  0  0  0  0  0  0  0  0
   -1.5879    4.7292   -1.5392 C   0  0  0  0  0  0  0  0  0  0  0  0
   -2.3955    5.7715   -1.2004 O   0  0  0  0  0  0  0  0  0  0  0  0
   -2.0626    3.4294   -1.5634 C   0  0  0  0  0  0  0  0  0  0  0  0
   -1.3351    2.4521   -2.2562 C   0  0  0  0  0  0  0  0  0  0  0  0
    0.0401    2.6291   -2.3288 C   0  0  0  0  0  0  0  0  0  0  0  0
   -1.8961    1.2490   -2.6106 O   0  0  0  0  0  0  0  0  0  0  0  0
   -3.1258    0.9036   -1.8875 C   0  0  0  0  0  0  0  0  0  0  0  0
   -4.3551    1.5361   -2.5680 C   0  0  0  0  0  0  0  0  0  0  0  0
   -3.2477   -0.6243   -2.0033 C   0  0  0  0  0  0  0  0  0  0  0  0
   -2.8929    1.3529   -0.4310 C   0  0  2  0  0  0  0  0  0  0  0  0
   -3.7625    0.8423    0.7196 C   0  0  0  0  0  0  0  0  0  0  0  0
   -3.0664    1.2255    2.0075 C   0  0  0  0  0  0  0  0  0  0  0  0
   -2.2860    2.3210    2.0988 C   0  0  0  0  0  0  0  0  0  0  0  0
   -1.3449    2.5336    3.2517 C   0  0  0  0  0  0  0  0  0  0  0  0
   -2.1854    3.3195    0.9678 C   0  0  0  0  0  0  0  0  0  0  0  0
   -2.8675    2.9000   -0.3716 C   0  0  1  0  0  0  0  0  0  0  0  0
    8.7797    2.9166    0.1731 H   0  0  0  0  0  0  0  0  0  0  0  0
    9.2713    3.5251   -1.4201 H   0  0  0  0  0  0  0  0  0  0  0  0
    9.2459    1.7808   -1.1054 H   0  0  0  0  0  0  0  0  0  0  0  0
    6.8146    1.7627   -0.9525 H   0  0  0  0  0  0  0  0  0  0  0  0
    7.2780    2.5320   -2.4712 H   0  0  0  0  0  0  0  0  0  0  0  0
    6.9938    4.7935   -1.3955 H   0  0  0  0  0  0  0  0  0  0  0  0
    6.5172    4.0033    0.1103 H   0  0  0  0  0  0  0  0  0  0  0  0
    4.6159    2.9097   -1.0571 H   0  0  0  0  0  0  0  0  0  0  0  0
    5.0556    3.7119   -2.5679 H   0  0  0  0  0  0  0  0  0  0  0  0
    4.7714    5.9466   -1.4479 H   0  0  0  0  0  0  0  0  0  0  0  0
    4.2568    5.1455    0.0226 H   0  0  0  0  0  0  0  0  0  0  0  0
    2.8637    5.1143   -2.6993 H   0  0  0  0  0  0  0  0  0  0  0  0
    2.3528    5.9531   -1.2442 H   0  0  0  0  0  0  0  0  0  0  0  0
    2.5067    2.9014   -1.5760 H   0  0  0  0  0  0  0  0  0  0  0  0
    1.3146    4.5299    0.7496 H   0  0  0  0  0  0  0  0  0  0  0  0
    2.8209    3.6100    0.8253 H   0  0  0  0  0  0  0  0  0  0  0  0
    1.2913    2.7725    0.5890 H   0  0  0  0  0  0  0  0  0  0  0  0
    0.1679    5.9057   -1.3369 H   0  0  0  0  0  0  0  0  0  0  0  0
   -3.2550    5.5884   -1.6217 H   0  0  0  0  0  0  0  0  0  0  0  0
    0.6649    1.7771   -2.5880 H   0  0  0  0  0  0  0  0  0  0  0  0
   -4.5924    1.0250   -3.5083 H   0  0  0  0  0  0  0  0  0  0  0  0
   -5.2389    1.4837   -1.9239 H   0  0  0  0  0  0  0  0  0  0  0  0
   -4.1934    2.5808   -2.8501 H   0  0  0  0  0  0  0  0  0  0  0  0
   -4.0270   -1.0320   -1.3534 H   0  0  0  0  0  0  0  0  0  0  0  0
   -2.2959   -1.1157   -1.7755 H   0  0  0  0  0  0  0  0  0  0  0  0
   -3.4994   -0.9172   -3.0304 H   0  0  0  0  0  0  0  0  0  0  0  0
   -1.8739    0.9856   -0.2041 H   0  0  0  0  0  0  0  0  0  0  0  0
   -4.7736    1.2596    0.7006 H   0  0  0  0  0  0  0  0  0  0  0  0
   -3.8421   -0.2482    0.6924 H   0  0  0  0  0  0  0  0  0  0  0  0
   -3.0874    0.5032    2.8206 H   0  0  0  0  0  0  0  0  0  0  0  0
   -1.8832    2.6241    4.1966 H   0  0  0  0  0  0  0  0  0  0  0  0
   -0.7432    3.4405    3.1156 H   0  0  0  0  0  0  0  0  0  0  0  0
   -0.6370    1.6982    3.3190 H   0  0  0  0  0  0  0  0  0  0  0  0
   -2.5957    4.2816    1.2980 H   0  0  0  0  0  0  0  0  0  0  0  0
   -1.1139    3.4808    0.7998 H   0  0  0  0  0  0  0  0  0  0  0  0
   -3.8820    3.3132   -0.4192 H   0  0  0  0  0  0  0  0  0  0  0  0
  1  2  1  0  0  0  0
  1 27  1  0  0  0  0
  1 28  1  0  0  0  0
  1 29  1  0  0  0  0
  2  3  1  0  0  0  0
  2 30  1  0  0  0  0
  2 31  1  0  0  0  0
  3  4  1  0  0  0  0
  3 32  1  0  0  0  0
  3 33  1  0  0  0  0
  4  5  1  0  0  0  0
  4 34  1  0  0  0  0
  4 35  1  0  0  0  0
  5  6  1  0  0  0  0
  5 36  1  0  0  0  0
  5 37  1  0  0  0  0
  6  7  1  0  0  0  0
  6 38  1  0  0  0  0
  6 39  1  0  0  0  0
  7  8  1  0  0  0  0
  7  9  1  0  0  0  0
  7 40  1  0  0  0  0
  8 41  1  0  0  0  0
  8 42  1  0  0  0  0
  8 43  1  0  0  0  0
  9 10  1  0  0  0  0
  9 15  2  0  0  0  0
 10 11  2  0  0  0  0
 10 44  1  0  0  0  0
 11 12  1  0  0  0  0
 11 13  1  0  0  0  0
 12 45  1  0  0  0  0
 13 14  2  0  0  0  0
 13 26  1  0  0  0  0
 14 15  1  0  0  0  0
 14 16  1  0  0  0  0
 15 46  1  0  0  0  0
 16 17  1  0  0  0  0
 17 18  1  0  0  0  0
 17 19  1  0  0  0  0
 17 20  1  0  0  0  0
 18 47  1  0  0  0  0
 18 48  1  0  0  0  0
 18 49  1  0  0  0  0
 19 50  1  0  0  0  0
 19 51  1  0  0  0  0
 19 52  1  0  0  0  0
 20 21  1  0  0  0  0
 20 26  1  0  0  0  0
 20 53  1  1  0  0  0
 21 22  1  0  0  0  0
 21 54  1  0  0  0  0
 21 55  1  0  0  0  0
 22 23  2  0  0  0  0
 22 56  1  0  0  0  0
 23 24  1  0  0  0  0
 23 25  1  0  0  0  0
 24 57  1  0  0  0  0
 24 58  1  0  0  0  0
 24 59  1  0  0  0  0
 25 26  1  0  0  0  0
 25 60  1  0  0  0  0
 25 61  1  0  0  0  0
 26 62  1  6  0  0  0
M  END
$$$$
