CHEMBL309331
 OpenBabel04072215363D

 50 54  0  0  0  0  0  0  0  0999 V2000
    0.6178    4.9533    1.6446 C   0  0  0  0  0  0  0  0  0  0  0  0
    0.1113    3.9593    2.4742 C   0  0  0  0  0  0  0  0  0  0  0  0
   -1.0913    3.3279    2.1493 C   0  0  0  0  0  0  0  0  0  0  0  0
   -1.8231    3.6824    0.9993 C   0  0  0  0  0  0  0  0  0  0  0  0
   -3.1125    3.0351    0.6754 C   0  0  0  0  0  0  0  0  0  0  0  0
   -3.9654    2.5862    1.6891 C   0  0  0  0  0  0  0  0  0  0  0  0
   -5.2128    2.0266    1.4026 C   0  0  0  0  0  0  0  0  0  0  0  0
   -5.6584    1.8683    0.0909 C   0  0  0  0  0  0  0  0  0  0  0  0
   -6.9743    1.4661   -0.2322 N   0  0  0  0  0  0  0  0  0  0  0  0
   -7.9761    0.9312    0.6241 C   0  0  0  0  0  0  0  0  0  0  0  0
   -7.6214    0.3483    1.7880 N   0  0  0  0  0  0  0  0  0  0  0  0
   -8.5507   -0.1691    2.6411 N   0  0  0  0  0  0  0  0  0  0  0  0
   -9.8581   -0.1369    2.3154 C   0  0  0  0  0  0  0  0  0  0  0  0
  -10.7832   -0.7447    3.3460 C   0  0  0  0  0  0  0  0  0  0  0  0
  -11.0666   -2.2174    3.1552 C   0  0  0  0  0  0  0  0  0  0  0  0
  -10.0378   -3.1634    3.2253 C   0  0  0  0  0  0  0  0  0  0  0  0
  -10.3514   -4.5053    3.0713 C   0  0  0  0  0  0  0  0  0  0  0  0
  -11.6031   -4.9658    2.8628 N   0  0  0  0  0  0  0  0  0  0  0  0
  -12.5842   -4.0417    2.8095 C   0  0  0  0  0  0  0  0  0  0  0  0
  -12.3708   -2.6780    2.9493 C   0  0  0  0  0  0  0  0  0  0  0  0
  -10.2982    0.4436    1.1142 C   0  0  0  0  0  0  0  0  0  0  0  0
  -11.6627    0.4884    0.7372 C   0  0  0  0  0  0  0  0  0  0  0  0
  -12.0830    1.1277   -0.4259 C   0  0  0  0  0  0  0  0  0  0  0  0
  -11.1467    1.7466   -1.2430 C   0  0  0  0  0  0  0  0  0  0  0  0
   -9.7945    1.6942   -0.9082 C   0  0  0  0  0  0  0  0  0  0  0  0
   -9.3346    1.0250    0.2559 C   0  0  0  0  0  0  0  0  0  0  0  0
   -4.8141    2.3149   -0.9339 C   0  0  0  0  0  0  0  0  0  0  0  0
   -3.5587    2.8746   -0.6475 C   0  0  0  0  0  0  0  0  0  0  0  0
   -1.2920    4.7019    0.1904 C   0  0  0  0  0  0  0  0  0  0  0  0
   -0.0831    5.3252    0.5030 C   0  0  0  0  0  0  0  0  0  0  0  0
    1.5568    5.4412    1.8911 H   0  0  0  0  0  0  0  0  0  0  0  0
    0.6476    3.6704    3.3738 H   0  0  0  0  0  0  0  0  0  0  0  0
   -1.4506    2.5468    2.8164 H   0  0  0  0  0  0  0  0  0  0  0  0
   -3.6968    2.6954    2.7375 H   0  0  0  0  0  0  0  0  0  0  0  0
   -5.8228    1.7333    2.2503 H   0  0  0  0  0  0  0  0  0  0  0  0
   -7.0359    1.0390   -1.1478 H   0  0  0  0  0  0  0  0  0  0  0  0
  -11.7196   -0.1765    3.3898 H   0  0  0  0  0  0  0  0  0  0  0  0
  -10.3441   -0.6097    4.3444 H   0  0  0  0  0  0  0  0  0  0  0  0
   -9.0074   -2.8679    3.4021 H   0  0  0  0  0  0  0  0  0  0  0  0
   -9.5793   -5.2682    3.1183 H   0  0  0  0  0  0  0  0  0  0  0  0
  -13.5832   -4.4386    2.6519 H   0  0  0  0  0  0  0  0  0  0  0  0
  -13.2153   -1.9987    2.9079 H   0  0  0  0  0  0  0  0  0  0  0  0
  -12.4310    0.0277    1.3523 H   0  0  0  0  0  0  0  0  0  0  0  0
  -13.1393    1.1506   -0.6808 H   0  0  0  0  0  0  0  0  0  0  0  0
  -11.4750    2.2728   -2.1361 H   0  0  0  0  0  0  0  0  0  0  0  0
   -9.0911    2.2126   -1.5587 H   0  0  0  0  0  0  0  0  0  0  0  0
   -5.1289    2.2627   -1.9736 H   0  0  0  0  0  0  0  0  0  0  0  0
   -2.9421    3.1994   -1.4805 H   0  0  0  0  0  0  0  0  0  0  0  0
   -1.8309    5.0446   -0.6915 H   0  0  0  0  0  0  0  0  0  0  0  0
    0.3034    6.1067   -0.1454 H   0  0  0  0  0  0  0  0  0  0  0  0
  1  2  1  0  0  0  0
  1 30  2  0  0  0  0
  1 31  1  0  0  0  0
  2  3  2  0  0  0  0
  2 32  1  0  0  0  0
  3  4  1  0  0  0  0
  3 33  1  0  0  0  0
  4  5  1  0  0  0  0
  4 29  2  0  0  0  0
  5  6  1  0  0  0  0
  5 28  2  0  0  0  0
  6  7  2  0  0  0  0
  6 34  1  0  0  0  0
  7  8  1  0  0  0  0
  7 35  1  0  0  0  0
  8  9  1  0  0  0  0
  8 27  2  0  0  0  0
  9 10  1  0  0  0  0
  9 36  1  0  0  0  0
 10 11  1  0  0  0  0
 10 26  2  0  0  0  0
 11 12  2  0  0  0  0
 12 13  1  0  0  0  0
 13 14  1  0  0  0  0
 13 21  2  0  0  0  0
 14 15  1  0  0  0  0
 14 37  1  0  0  0  0
 14 38  1  0  0  0  0
 15 16  1  0  0  0  0
 15 20  2  0  0  0  0
 16 17  2  0  0  0  0
 16 39  1  0  0  0  0
 17 18  1  0  0  0  0
 17 40  1  0  0  0  0
 18 19  2  0  0  0  0
 19 20  1  0  0  0  0
 19 41  1  0  0  0  0
 20 42  1  0  0  0  0
 21 22  1  0  0  0  0
 21 26  1  0  0  0  0
 22 23  2  0  0  0  0
 22 43  1  0  0  0  0
 23 24  1  0  0  0  0
 23 44  1  0  0  0  0
 24 25  2  0  0  0  0
 24 45  1  0  0  0  0
 25 26  1  0  0  0  0
 25 46  1  0  0  0  0
 27 28  1  0  0  0  0
 27 47  1  0  0  0  0
 28 48  1  0  0  0  0
 29 30  1  0  0  0  0
 29 49  1  0  0  0  0
 30 50  1  0  0  0  0
M  END
$$$$
