CHEMBL205421
 OpenBabel04072215363D

 46 49  0  0  0  0  0  0  0  0999 V2000
   10.8953    6.9476    1.4925 F   0  0  0  0  0  0  0  0  0  0  0  0
    9.9428    5.9724    1.5214 C   0  0  0  0  0  0  0  0  0  0  0  0
    9.3360    6.0129    0.3029 F   0  0  0  0  0  0  0  0  0  0  0  0
   10.6218    4.7929    1.5627 F   0  0  0  0  0  0  0  0  0  0  0  0
    8.9643    6.1204    2.6627 C   0  0  0  0  0  0  0  0  0  0  0  0
    9.1233    7.1471    3.6010 C   0  0  0  0  0  0  0  0  0  0  0  0
    8.2070    7.2985    4.6362 C   0  0  0  0  0  0  0  0  0  0  0  0
    7.1223    6.4264    4.7474 C   0  0  0  0  0  0  0  0  0  0  0  0
    6.9369    5.3732    3.8447 C   0  0  0  0  0  0  0  0  0  0  0  0
    5.8295    4.5005    3.8932 N   0  0  0  0  0  0  0  0  0  0  0  0
    4.7318    4.5804    4.6756 C   0  0  0  0  0  0  0  0  0  0  0  0
    3.9732    3.6046    5.1260 N   0  0  0  0  0  0  0  0  0  0  0  0
    2.9250    4.1924    5.8071 N   0  0  0  0  0  0  0  0  0  0  0  0
    3.0778    5.4951    5.6951 C   0  0  0  0  0  0  0  0  0  0  0  0
    2.2494    6.6156    6.1486 C   0  0  0  0  0  0  0  0  0  0  0  0
    2.7036    7.9219    5.9056 C   0  0  0  0  0  0  0  0  0  0  0  0
    2.0623    9.0656    6.2530 N   0  0  0  0  0  0  0  0  0  0  0  0
    0.8926    8.9211    6.8925 C   0  0  0  0  0  0  0  0  0  0  0  0
    0.3426    7.6874    7.1954 C   0  0  0  0  0  0  0  0  0  0  0  0
    1.0054    6.4988    6.8137 C   0  0  0  0  0  0  0  0  0  0  0  0
    0.3241    5.1877    7.1901 C   0  0  0  0  0  0  0  0  0  0  0  0
   -1.0834    5.0386    6.5749 C   0  0  0  0  0  0  0  0  0  0  0  0
   -1.9000    3.8168    6.9386 C   0  0  0  0  0  0  0  0  0  0  0  0
   -1.4511    2.7780    7.7558 C   0  0  0  0  0  0  0  0  0  0  0  0
   -2.3125    1.7226    8.0306 C   0  0  0  0  0  0  0  0  0  0  0  0
   -3.5739    1.6286    7.5565 N   0  0  0  0  0  0  0  0  0  0  0  0
   -3.9885    2.6325    6.7592 C   0  0  0  0  0  0  0  0  0  0  0  0
   -3.2054    3.7252    6.4296 C   0  0  0  0  0  0  0  0  0  0  0  0
    4.2228    5.8108    4.9981 O   0  0  0  0  0  0  0  0  0  0  0  0
    7.8706    5.2388    2.7973 C   0  0  0  0  0  0  0  0  0  0  0  0
    9.9591    7.8417    3.5266 H   0  0  0  0  0  0  0  0  0  0  0  0
    8.3322    8.0996    5.3607 H   0  0  0  0  0  0  0  0  0  0  0  0
    6.4415    6.5770    5.5801 H   0  0  0  0  0  0  0  0  0  0  0  0
    6.0305    3.5740    3.5337 H   0  0  0  0  0  0  0  0  0  0  0  0
    3.6479    8.1091    5.3970 H   0  0  0  0  0  0  0  0  0  0  0  0
    0.3901    9.8444    7.1674 H   0  0  0  0  0  0  0  0  0  0  0  0
   -0.6030    7.6605    7.7301 H   0  0  0  0  0  0  0  0  0  0  0  0
    0.2597    5.1560    8.2862 H   0  0  0  0  0  0  0  0  0  0  0  0
    0.9207    4.3213    6.9064 H   0  0  0  0  0  0  0  0  0  0  0  0
   -0.9907    5.0708    5.4814 H   0  0  0  0  0  0  0  0  0  0  0  0
   -1.6933    5.9027    6.8664 H   0  0  0  0  0  0  0  0  0  0  0  0
   -0.4557    2.7650    8.1856 H   0  0  0  0  0  0  0  0  0  0  0  0
   -2.0021    0.8973    8.6666 H   0  0  0  0  0  0  0  0  0  0  0  0
   -5.0072    2.5382    6.3864 H   0  0  0  0  0  0  0  0  0  0  0  0
   -3.6083    4.4997    5.7844 H   0  0  0  0  0  0  0  0  0  0  0  0
    7.7459    4.4451    2.0603 H   0  0  0  0  0  0  0  0  0  0  0  0
  1  2  1  0  0  0  0
  2  3  1  0  0  0  0
  2  4  1  0  0  0  0
  2  5  1  0  0  0  0
  5  6  1  0  0  0  0
  5 30  2  0  0  0  0
  6  7  2  0  0  0  0
  6 31  1  0  0  0  0
  7  8  1  0  0  0  0
  7 32  1  0  0  0  0
  8  9  2  0  0  0  0
  8 33  1  0  0  0  0
  9 10  1  0  0  0  0
  9 30  1  0  0  0  0
 10 11  1  0  0  0  0
 10 34  1  0  0  0  0
 11 12  2  0  0  0  0
 11 29  1  0  0  0  0
 12 13  1  0  0  0  0
 13 14  2  0  0  0  0
 14 15  1  0  0  0  0
 14 29  1  0  0  0  0
 15 16  1  0  0  0  0
 15 20  2  0  0  0  0
 16 17  2  0  0  0  0
 16 35  1  0  0  0  0
 17 18  1  0  0  0  0
 18 19  2  0  0  0  0
 18 36  1  0  0  0  0
 19 20  1  0  0  0  0
 19 37  1  0  0  0  0
 20 21  1  0  0  0  0
 21 22  1  0  0  0  0
 21 38  1  0  0  0  0
 21 39  1  0  0  0  0
 22 23  1  0  0  0  0
 22 40  1  0  0  0  0
 22 41  1  0  0  0  0
 23 24  1  0  0  0  0
 23 28  2  0  0  0  0
 24 25  2  0  0  0  0
 24 42  1  0  0  0  0
 25 26  1  0  0  0  0
 25 43  1  0  0  0  0
 26 27  2  0  0  0  0
 27 28  1  0  0  0  0
 27 44  1  0  0  0  0
 28 45  1  0  0  0  0
 30 46  1  0  0  0  0
M  END
$$$$
