CHEMBL4449700
 OpenBabel04072215383D

 47 50  0  0  0  0  0  0  0  0999 V2000
    2.5732    1.3530   -0.4367 C   0  0  0  0  0  0  0  0  0  0  0  0
    2.4081   -0.0043   -0.0267 O   0  0  0  0  0  0  0  0  0  0  0  0
    3.0671   -0.2719    1.1517 C   0  0  0  0  0  0  0  0  0  0  0  0
    2.9788   -1.5596    1.6529 C   0  0  0  0  0  0  0  0  0  0  0  0
    3.6798   -1.8605    2.8229 C   0  0  0  0  0  0  0  0  0  0  0  0
    4.4701   -0.8924    3.4547 C   0  0  0  0  0  0  0  0  0  0  0  0
    5.2853   -1.1791    4.6522 C   0  0  0  0  0  0  0  0  0  0  0  0
    5.8727   -2.4421    4.8464 C   0  0  0  0  0  0  0  0  0  0  0  0
    6.6881   -2.7073    5.9532 C   0  0  0  0  0  0  0  0  0  0  0  0
    6.9485   -1.7095    6.8970 C   0  0  0  0  0  0  0  0  0  0  0  0
    7.8670   -1.9703    8.0685 C   0  0  0  0  0  0  0  0  0  0  0  0
    9.2537   -1.7130    7.7262 N   0  0  0  0  0  0  0  0  0  0  0  0
    9.8274   -0.5297    7.3595 C   0  0  0  0  0  0  0  0  0  0  0  0
   11.1230   -0.8750    7.0485 C   0  0  0  0  0  0  0  0  0  0  0  0
   12.1249   -0.0054    6.4663 C   0  0  0  0  0  0  0  0  0  0  0  0
   12.1186    1.3763    6.6957 C   0  0  0  0  0  0  0  0  0  0  0  0
   13.0697    2.2025    6.0887 C   0  0  0  0  0  0  0  0  0  0  0  0
   14.0403    1.6616    5.2395 C   0  0  0  0  0  0  0  0  0  0  0  0
   15.0592    2.5392    4.5758 C   0  0  0  0  0  0  0  0  0  0  0  0
   14.0525    0.2806    5.0137 C   0  0  0  0  0  0  0  0  0  0  0  0
   13.1061   -0.5460    5.6267 C   0  0  0  0  0  0  0  0  0  0  0  0
   11.3070   -2.2093    7.3065 N   0  0  0  0  0  0  0  0  0  0  0  0
   10.1588   -2.7090    7.7477 N   0  0  0  0  0  0  0  0  0  0  0  0
    6.3673   -0.4471    6.7197 C   0  0  0  0  0  0  0  0  0  0  0  0
    5.5492   -0.1930    5.6154 C   0  0  0  0  0  0  0  0  0  0  0  0
    4.4680    0.3704    2.8585 C   0  0  0  0  0  0  0  0  0  0  0  0
    3.7824    0.7037    1.7421 N   0  0  0  0  0  0  0  0  0  0  0  0
    2.1519    1.4566   -1.4421 H   0  0  0  0  0  0  0  0  0  0  0  0
    3.6299    1.6400   -0.4980 H   0  0  0  0  0  0  0  0  0  0  0  0
    2.0236    2.0241    0.2323 H   0  0  0  0  0  0  0  0  0  0  0  0
    2.3879   -2.3080    1.1426 H   0  0  0  0  0  0  0  0  0  0  0  0
    3.6010   -2.8697    3.2226 H   0  0  0  0  0  0  0  0  0  0  0  0
    5.7268   -3.2399    4.1231 H   0  0  0  0  0  0  0  0  0  0  0  0
    7.1335   -3.6936    6.0547 H   0  0  0  0  0  0  0  0  0  0  0  0
    7.7762   -3.0110    8.4005 H   0  0  0  0  0  0  0  0  0  0  0  0
    7.6152   -1.3306    8.9196 H   0  0  0  0  0  0  0  0  0  0  0  0
    9.2725    0.3922    7.2825 H   0  0  0  0  0  0  0  0  0  0  0  0
   11.3805    1.8279    7.3532 H   0  0  0  0  0  0  0  0  0  0  0  0
   13.0432    3.2722    6.2838 H   0  0  0  0  0  0  0  0  0  0  0  0
   14.9220    3.5905    4.8497 H   0  0  0  0  0  0  0  0  0  0  0  0
   14.9722    2.4623    3.4873 H   0  0  0  0  0  0  0  0  0  0  0  0
   16.0678    2.2420    4.8798 H   0  0  0  0  0  0  0  0  0  0  0  0
   14.7961   -0.1621    4.3546 H   0  0  0  0  0  0  0  0  0  0  0  0
   13.1290   -1.6163    5.4288 H   0  0  0  0  0  0  0  0  0  0  0  0
    6.5591    0.3562    7.4263 H   0  0  0  0  0  0  0  0  0  0  0  0
    5.1166    0.8020    5.5279 H   0  0  0  0  0  0  0  0  0  0  0  0
    5.0605    1.1895    3.2563 H   0  0  0  0  0  0  0  0  0  0  0  0
  1  2  1  0  0  0  0
  1 28  1  0  0  0  0
  1 29  1  0  0  0  0
  1 30  1  0  0  0  0
  2  3  1  0  0  0  0
  3  4  1  0  0  0  0
  3 27  2  0  0  0  0
  4  5  2  0  0  0  0
  4 31  1  0  0  0  0
  5  6  1  0  0  0  0
  5 32  1  0  0  0  0
  6  7  1  0  0  0  0
  6 26  2  0  0  0  0
  7  8  1  0  0  0  0
  7 25  2  0  0  0  0
  8  9  2  0  0  0  0
  8 33  1  0  0  0  0
  9 10  1  0  0  0  0
  9 34  1  0  0  0  0
 10 11  1  0  0  0  0
 10 24  2  0  0  0  0
 11 12  1  0  0  0  0
 11 35  1  0  0  0  0
 11 36  1  0  0  0  0
 12 13  1  0  0  0  0
 12 23  1  0  0  0  0
 13 14  2  0  0  0  0
 13 37  1  0  0  0  0
 14 15  1  0  0  0  0
 14 22  1  0  0  0  0
 15 16  1  0  0  0  0
 15 21  2  0  0  0  0
 16 17  2  0  0  0  0
 16 38  1  0  0  0  0
 17 18  1  0  0  0  0
 17 39  1  0  0  0  0
 18 19  1  0  0  0  0
 18 20  2  0  0  0  0
 19 40  1  0  0  0  0
 19 41  1  0  0  0  0
 19 42  1  0  0  0  0
 20 21  1  0  0  0  0
 20 43  1  0  0  0  0
 21 44  1  0  0  0  0
 22 23  2  0  0  0  0
 24 25  1  0  0  0  0
 24 45  1  0  0  0  0
 25 46  1  0  0  0  0
 26 27  1  0  0  0  0
 26 47  1  0  0  0  0
M  END
$$$$
