CHEMBL3927914
 OpenBabel04072215373D

 38 40  0  0  0  0  0  0  0  0999 V2000
    4.0100    0.9816   -1.4141 C   0  0  0  0  0  0  0  0  0  0  0  0
    4.2705   -0.2804   -2.0130 O   0  0  0  0  0  0  0  0  0  0  0  0
    4.5280   -1.3270   -1.1728 C   0  0  0  0  0  0  0  0  0  0  0  0
    4.6203   -1.2678    0.2168 C   0  0  0  0  0  0  0  0  0  0  0  0
    4.8888   -2.4293    0.9546 C   0  0  0  0  0  0  0  0  0  0  0  0
    5.0339   -3.6637    0.3139 C   0  0  0  0  0  0  0  0  0  0  0  0
    5.3551   -4.7858    1.0984 N   0  0  0  0  0  0  0  0  0  0  0  0
    5.2184   -6.1310    0.8162 C   0  0  0  0  0  0  0  0  0  0  0  0
    4.0212   -6.8600   -0.0917 S   0  0  0  0  0  0  0  0  0  0  0  0
    6.1736   -6.9255    1.4353 N   0  0  0  0  0  0  0  0  0  0  0  0
    7.4252   -6.3214    1.6826 N   0  0  0  0  0  0  0  0  0  0  0  0
    8.5393   -7.0509    1.1638 C   0  0  0  0  0  0  0  0  0  0  0  0
    8.3836   -8.3376    0.7546 N   0  0  0  0  0  0  0  0  0  0  0  0
    9.4494   -9.0399    0.2555 N   0  0  0  0  0  0  0  0  0  0  0  0
   10.6522   -8.4375    0.1535 C   0  0  0  0  0  0  0  0  0  0  0  0
   10.8826   -7.1315    0.5688 C   0  0  0  0  0  0  0  0  0  0  0  0
   12.1453   -6.5242    0.4667 C   0  0  0  0  0  0  0  0  0  0  0  0
   12.3373   -5.2007    0.8686 C   0  0  0  0  0  0  0  0  0  0  0  0
   11.2641   -4.4674    1.3592 C   0  0  0  0  0  0  0  0  0  0  0  0
   10.0063   -5.0598    1.4636 C   0  0  0  0  0  0  0  0  0  0  0  0
    9.7893   -6.4064    1.0889 C   0  0  0  0  0  0  0  0  0  0  0  0
    4.9688   -3.7140   -1.0777 C   0  0  0  0  0  0  0  0  0  0  0  0
    4.7184   -2.5521   -1.8130 C   0  0  0  0  0  0  0  0  0  0  0  0
    3.7233    1.6752   -2.2108 H   0  0  0  0  0  0  0  0  0  0  0  0
    4.9110    1.3761   -0.9335 H   0  0  0  0  0  0  0  0  0  0  0  0
    3.1751    0.9279   -0.7078 H   0  0  0  0  0  0  0  0  0  0  0  0
    4.4890   -0.3368    0.7580 H   0  0  0  0  0  0  0  0  0  0  0  0
    4.9530   -2.3574    2.0368 H   0  0  0  0  0  0  0  0  0  0  0  0
    5.7438   -4.6043    2.0119 H   0  0  0  0  0  0  0  0  0  0  0  0
    6.2177   -7.8946    1.1065 H   0  0  0  0  0  0  0  0  0  0  0  0
    7.5919   -6.1323    2.6680 H   0  0  0  0  0  0  0  0  0  0  0  0
   11.4290   -9.0487   -0.2879 H   0  0  0  0  0  0  0  0  0  0  0  0
   12.9967   -7.0774    0.0675 H   0  0  0  0  0  0  0  0  0  0  0  0
   13.3153   -4.7415    0.7844 H   0  0  0  0  0  0  0  0  0  0  0  0
   11.4005   -3.4263    1.6489 H   0  0  0  0  0  0  0  0  0  0  0  0
    9.1793   -4.4472    1.8253 H   0  0  0  0  0  0  0  0  0  0  0  0
    5.1583   -4.6342   -1.6210 H   0  0  0  0  0  0  0  0  0  0  0  0
    4.6815   -2.6058   -2.8984 H   0  0  0  0  0  0  0  0  0  0  0  0
  1  2  1  0  0  0  0
  1 24  1  0  0  0  0
  1 25  1  0  0  0  0
  1 26  1  0  0  0  0
  2  3  1  0  0  0  0
  3  4  1  0  0  0  0
  3 23  2  0  0  0  0
  4  5  2  0  0  0  0
  4 27  1  0  0  0  0
  5  6  1  0  0  0  0
  5 28  1  0  0  0  0
  6  7  1  0  0  0  0
  6 22  2  0  0  0  0
  7  8  1  0  0  0  0
  7 29  1  0  0  0  0
  8  9  2  0  0  0  0
  8 10  1  0  0  0  0
 10 11  1  0  0  0  0
 10 30  1  0  0  0  0
 11 12  1  0  0  0  0
 11 31  1  0  0  0  0
 12 13  1  0  0  0  0
 12 21  2  0  0  0  0
 13 14  2  0  0  0  0
 14 15  1  0  0  0  0
 15 16  2  0  0  0  0
 15 32  1  0  0  0  0
 16 17  1  0  0  0  0
 16 21  1  0  0  0  0
 17 18  2  0  0  0  0
 17 33  1  0  0  0  0
 18 19  1  0  0  0  0
 18 34  1  0  0  0  0
 19 20  2  0  0  0  0
 19 35  1  0  0  0  0
 20 21  1  0  0  0  0
 20 36  1  0  0  0  0
 22 23  1  0  0  0  0
 22 37  1  0  0  0  0
 23 38  1  0  0  0  0
M  END
$$$$
