CHEMBL2409787
 OpenBabel04072215363D

 53 57  0  0  0  0  0  0  0  0999 V2000
    2.5048    0.2500    0.0313 C   0  0  0  0  0  0  0  0  0  0  0  0
    1.0026    0.1398    0.0690 C   0  0  0  0  0  0  0  0  0  0  0  0
    0.2846    1.3461    0.1695 C   0  0  0  0  0  0  0  0  0  0  0  0
   -1.1046    1.3546    0.1935 C   0  0  0  0  0  0  0  0  0  0  0  0
   -1.8029    0.1621    0.0410 C   0  0  0  0  0  0  0  0  0  0  0  0
   -3.1816    0.1107   -0.0218 O   0  0  0  0  0  0  0  0  0  0  0  0
   -3.8672    1.0809   -0.7362 C   0  0  0  0  0  0  0  0  0  0  0  0
   -5.2385    1.3291   -0.2995 C   0  0  0  0  0  0  0  0  0  0  0  0
   -6.0104    2.2684   -0.8870 C   0  0  0  0  0  0  0  0  0  0  0  0
   -5.4843    3.0439   -1.9638 C   0  0  0  0  0  0  0  0  0  0  0  0
   -5.9766    4.0169   -2.7053 N   0  0  0  0  0  0  0  0  0  0  0  0
   -4.9136    4.3723   -3.4954 C   0  0  0  0  0  0  0  0  0  0  0  0
   -5.0437    5.4212   -4.3696 N   0  0  0  0  0  0  0  0  0  0  0  0
   -3.9686    6.0075   -4.9997 C   0  0  0  0  0  0  0  0  0  0  0  0
   -2.7876    5.7387   -4.8323 O   0  0  0  0  0  0  0  0  0  0  0  0
   -4.2639    7.1305   -5.9380 C   0  0  0  0  0  0  0  0  0  0  0  0
   -5.0401    8.3376   -5.4643 C   0  0  0  0  0  0  0  0  0  0  0  0
   -5.5998    7.4605   -6.5498 C   0  0  0  0  0  0  0  0  0  0  0  0
   -3.8259    3.6273   -3.3321 N   0  0  0  0  0  0  0  0  0  0  0  0
   -4.1770    2.7710   -2.3616 N   0  0  0  0  0  0  0  0  0  0  0  0
   -3.3956    1.7827   -1.7841 C   0  0  0  0  0  0  0  0  0  0  0  0
   -1.1071   -1.0503   -0.0135 C   0  0  0  0  0  0  0  0  0  0  0  0
    0.3001   -1.0887    0.0112 C   0  0  0  0  0  0  0  0  0  0  0  0
    1.0304   -2.3121   -0.0304 N   0  0  0  0  0  0  0  0  0  0  0  0
    0.5164   -3.6067   -0.0234 C   0  0  0  0  0  0  0  0  0  0  0  0
   -0.6764   -3.8730    0.0612 O   0  0  0  0  0  0  0  0  0  0  0  0
    1.5030   -4.6710   -0.1415 C   0  0  0  0  0  0  0  0  0  0  0  0
    2.8837   -4.6719   -0.0095 C   0  0  0  0  0  0  0  0  0  0  0  0
    3.2912   -5.9931   -0.2627 C   0  0  0  0  0  0  0  0  0  0  0  0
    2.2641   -6.7964   -0.5116 N   0  0  0  0  0  0  0  0  0  0  0  0
    1.1861   -5.9887   -0.4179 N   0  0  0  0  0  0  0  0  0  0  0  0
   -0.1217   -6.5650   -0.6460 C   0  0  0  0  0  0  0  0  0  0  0  0
    2.8262    1.2982    0.0826 H   0  0  0  0  0  0  0  0  0  0  0  0
    2.8973   -0.1563   -0.9057 H   0  0  0  0  0  0  0  0  0  0  0  0
    2.9533   -0.2649    0.8850 H   0  0  0  0  0  0  0  0  0  0  0  0
    0.8052    2.3007    0.2220 H   0  0  0  0  0  0  0  0  0  0  0  0
   -1.6250    2.3018    0.2969 H   0  0  0  0  0  0  0  0  0  0  0  0
   -5.6189    0.7337    0.5262 H   0  0  0  0  0  0  0  0  0  0  0  0
   -7.0250    2.4583   -0.5534 H   0  0  0  0  0  0  0  0  0  0  0  0
   -5.9713    5.7995   -4.4462 H   0  0  0  0  0  0  0  0  0  0  0  0
   -3.4088    7.3414   -6.5785 H   0  0  0  0  0  0  0  0  0  0  0  0
   -4.6422    9.3094   -5.7324 H   0  0  0  0  0  0  0  0  0  0  0  0
   -5.5130    8.3111   -4.4902 H   0  0  0  0  0  0  0  0  0  0  0  0
   -5.5918    7.8530   -7.5635 H   0  0  0  0  0  0  0  0  0  0  0  0
   -6.4644    6.8489   -6.3336 H   0  0  0  0  0  0  0  0  0  0  0  0
   -2.4087    1.6672   -2.2101 H   0  0  0  0  0  0  0  0  0  0  0  0
   -1.7017   -1.9520   -0.0971 H   0  0  0  0  0  0  0  0  0  0  0  0
    2.0331   -2.2291   -0.0624 H   0  0  0  0  0  0  0  0  0  0  0  0
    3.5275   -3.8414    0.2367 H   0  0  0  0  0  0  0  0  0  0  0  0
    4.2932   -6.4066   -0.2774 H   0  0  0  0  0  0  0  0  0  0  0  0
   -0.0064   -7.5858   -1.0249 H   0  0  0  0  0  0  0  0  0  0  0  0
   -0.6489   -5.9683   -1.3936 H   0  0  0  0  0  0  0  0  0  0  0  0
   -0.6617   -6.5877    0.3033 H   0  0  0  0  0  0  0  0  0  0  0  0
  1  2  1  0  0  0  0
  1 33  1  0  0  0  0
  1 34  1  0  0  0  0
  1 35  1  0  0  0  0
  2  3  1  0  0  0  0
  2 23  2  0  0  0  0
  3  4  2  0  0  0  0
  3 36  1  0  0  0  0
  4  5  1  0  0  0  0
  4 37  1  0  0  0  0
  5  6  1  0  0  0  0
  5 22  2  0  0  0  0
  6  7  1  0  0  0  0
  7  8  1  0  0  0  0
  7 21  2  0  0  0  0
  8  9  2  0  0  0  0
  8 38  1  0  0  0  0
  9 10  1  0  0  0  0
  9 39  1  0  0  0  0
 10 11  2  0  0  0  0
 10 20  1  0  0  0  0
 11 12  1  0  0  0  0
 12 13  1  0  0  0  0
 12 19  2  0  0  0  0
 13 14  1  0  0  0  0
 13 40  1  0  0  0  0
 14 15  2  0  0  0  0
 14 16  1  0  0  0  0
 16 17  1  0  0  0  0
 16 18  1  0  0  0  0
 16 41  1  0  0  0  0
 17 18  1  0  0  0  0
 17 42  1  0  0  0  0
 17 43  1  0  0  0  0
 18 44  1  0  0  0  0
 18 45  1  0  0  0  0
 19 20  1  0  0  0  0
 20 21  1  0  0  0  0
 21 46  1  0  0  0  0
 22 23  1  0  0  0  0
 22 47  1  0  0  0  0
 23 24  1  0  0  0  0
 24 25  1  0  0  0  0
 24 48  1  0  0  0  0
 25 26  2  0  0  0  0
 25 27  1  0  0  0  0
 27 28  2  0  0  0  0
 27 31  1  0  0  0  0
 28 29  1  0  0  0  0
 28 49  1  0  0  0  0
 29 30  2  0  0  0  0
 29 50  1  0  0  0  0
 30 31  1  0  0  0  0
 31 32  1  0  0  0  0
 32 51  1  0  0  0  0
 32 52  1  0  0  0  0
 32 53  1  0  0  0  0
M  END
$$$$
