CHEMBL3093579
 OpenBabel04072215363D

 66 70  0  0  0  0  0  0  0  0999 V2000
    1.1060   -1.2162   -0.8389 C   0  0  0  0  0  0  0  0  0  0  0  0
    2.5988   -0.9301   -0.8462 C   0  0  0  0  0  0  0  0  0  0  0  0
    3.3624   -1.7352   -0.0039 C   0  0  0  0  0  0  0  0  0  0  0  0
    4.7325   -1.6092    0.0471 C   0  0  0  0  0  0  0  0  0  0  0  0
    5.3901   -0.6632   -0.7411 C   0  0  0  0  0  0  0  0  0  0  0  0
    6.8904   -0.5298   -0.6964 C   0  0  0  0  0  0  0  0  0  0  0  0
    7.4187    0.3782   -1.3267 O   0  0  0  0  0  0  0  0  0  0  0  0
    7.6903   -1.3929    0.0029 N   0  0  0  0  0  0  0  0  0  0  0  0
    9.0909   -1.2423   -0.0405 C   0  0  0  0  0  0  0  0  0  0  0  0
    9.7286   -0.4496    0.9120 C   0  0  0  0  0  0  0  0  0  0  0  0
   11.0868   -0.1934    0.7947 C   0  0  0  0  0  0  0  0  0  0  0  0
   11.8201   -0.7055   -0.2946 C   0  0  0  0  0  0  0  0  0  0  0  0
   13.1203   -0.3821   -0.4908 O   0  0  0  0  0  0  0  0  0  0  0  0
   13.7402    0.7324   -0.0218 C   0  0  0  0  0  0  0  0  0  0  0  0
   15.1088    0.6305    0.2659 C   0  0  0  0  0  0  0  0  0  0  0  0
   15.7905    1.7047    0.8208 C   0  0  0  0  0  0  0  0  0  0  0  0
   15.0786    2.8569    1.0823 C   0  0  0  0  0  0  0  0  0  0  0  0
   15.5915    3.9183    1.6859 N   0  0  0  0  0  0  0  0  0  0  0  0
   14.5696    4.7883    1.8152 C   0  0  0  0  0  0  0  0  0  0  0  0
   14.7221    6.0118    2.5533 N   0  0  0  0  0  0  0  0  0  0  0  0
   15.9161    6.2767    3.2014 C   0  0  0  0  0  0  0  0  0  0  0  0
   16.8571    5.5074    3.0851 O   0  0  0  0  0  0  0  0  0  0  0  0
   16.2035    7.4386    4.1232 C   0  0  0  0  0  0  0  0  0  0  0  0
   15.2385    8.5479    4.4956 C   0  0  0  0  0  0  0  0  0  0  0  0
   16.1772    8.7176    3.3109 C   0  0  0  0  0  0  0  0  0  0  0  0
   13.4203    4.2294    1.2218 C   0  0  0  0  0  0  0  0  0  0  0  0
   13.7781    2.9913    0.7888 N   0  0  0  0  0  0  0  0  0  0  0  0
   13.0697    1.9773    0.2129 C   0  0  0  0  0  0  0  0  0  0  0  0
   11.1907   -1.5667   -1.2024 C   0  0  0  0  0  0  0  0  0  0  0  0
   11.8902   -2.1137   -2.2283 F   0  0  0  0  0  0  0  0  0  0  0  0
    9.8250   -1.8286   -1.0790 C   0  0  0  0  0  0  0  0  0  0  0  0
    4.5987    0.1554   -1.5933 C   0  0  0  0  0  0  0  0  0  0  0  0
    5.1602    1.0061   -2.2649 O   0  0  0  0  0  0  0  0  0  0  0  0
    3.2079    0.0209   -1.6652 N   0  0  0  0  0  0  0  0  0  0  0  0
    2.4594    0.8343   -2.6352 C   0  0  0  0  0  0  0  0  0  0  0  0
    2.9954    1.0885   -3.9290 C   0  0  0  0  0  0  0  0  0  0  0  0
    2.2959    1.8464   -4.8731 C   0  0  0  0  0  0  0  0  0  0  0  0
    1.0433    2.3666   -4.5643 C   0  0  0  0  0  0  0  0  0  0  0  0
    0.4927    2.1396   -3.3069 C   0  0  0  0  0  0  0  0  0  0  0  0
    1.1907    1.3924   -2.3535 C   0  0  0  0  0  0  0  0  0  0  0  0
    1.0434    1.2087    2.2744 Cl  0  0  0  0  0  0  0  0  0  0  0  0
    0.8638   -2.1198   -0.2380 H   0  0  0  0  0  0  0  0  0  0  0  0
    0.7331   -1.3990   -1.8674 H   0  0  0  0  0  0  0  0  0  0  0  0
    0.5399   -0.4196   -0.3268 H   0  0  0  0  0  0  0  0  0  0  0  0
    2.8997   -2.4860    0.6258 H   0  0  0  0  0  0  0  0  0  0  0  0
    5.2532   -2.2658    0.7218 H   0  0  0  0  0  0  0  0  0  0  0  0
    7.3190   -2.1863    0.5358 H   0  0  0  0  0  0  0  0  0  0  0  0
    9.1724   -0.0029    1.7258 H   0  0  0  0  0  0  0  0  0  0  0  0
   11.5529    0.4304    1.5442 H   0  0  0  0  0  0  0  0  0  0  0  0
   15.6394   -0.2959    0.0927 H   0  0  0  0  0  0  0  0  0  0  0  0
   16.8368    1.6372    1.0813 H   0  0  0  0  0  0  0  0  0  0  0  0
   13.9118    6.6454    2.6565 H   0  0  0  0  0  0  0  0  0  0  0  0
   17.2176    7.4281    4.5855 H   0  0  0  0  0  0  0  0  0  0  0  0
   15.5972    8.8611    5.5029 H   0  0  0  0  0  0  0  0  0  0  0  0
   14.2369    8.0893    4.4067 H   0  0  0  0  0  0  0  0  0  0  0  0
   16.8877    9.5239    3.6010 H   0  0  0  0  0  0  0  0  0  0  0  0
   15.4938    8.8605    2.4495 H   0  0  0  0  0  0  0  0  0  0  0  0
   12.4190    4.6501    1.1657 H   0  0  0  0  0  0  0  0  0  0  0  0
   12.0179    2.1085   -0.0147 H   0  0  0  0  0  0  0  0  0  0  0  0
    9.3289   -2.4579   -1.8069 H   0  0  0  0  0  0  0  0  0  0  0  0
    3.9501    0.6858   -4.2358 H   0  0  0  0  0  0  0  0  0  0  0  0
    2.7258    2.0247   -5.8508 H   0  0  0  0  0  0  0  0  0  0  0  0
    0.4999    2.9489   -5.2981 H   0  0  0  0  0  0  0  0  0  0  0  0
   -0.4792    2.5501   -3.0643 H   0  0  0  0  0  0  0  0  0  0  0  0
    0.7228    1.2969   -1.3980 H   0  0  0  0  0  0  0  0  0  0  0  0
    1.7131    0.0236    2.0790 H   0  0  0  0  0  0  0  0  0  0  0  0
  1  2  1  0  0  0  0
  1 42  1  0  0  0  0
  1 43  1  0  0  0  0
  1 44  1  0  0  0  0
  2  3  2  0  0  0  0
  2 34  1  0  0  0  0
  3  4  1  0  0  0  0
  3 45  1  0  0  0  0
  4  5  2  0  0  0  0
  4 46  1  0  0  0  0
  5  6  1  0  0  0  0
  5 32  1  0  0  0  0
  6  7  2  0  0  0  0
  6  8  1  0  0  0  0
  8  9  1  0  0  0  0
  8 47  1  0  0  0  0
  9 10  1  0  0  0  0
  9 31  2  0  0  0  0
 10 11  2  0  0  0  0
 10 48  1  0  0  0  0
 11 12  1  0  0  0  0
 11 49  1  0  0  0  0
 12 13  1  0  0  0  0
 12 29  2  0  0  0  0
 13 14  1  0  0  0  0
 14 15  1  0  0  0  0
 14 28  2  0  0  0  0
 15 16  2  0  0  0  0
 15 50  1  0  0  0  0
 16 17  1  0  0  0  0
 16 51  1  0  0  0  0
 17 18  2  0  0  0  0
 17 27  1  0  0  0  0
 18 19  1  0  0  0  0
 19 20  1  0  0  0  0
 19 26  2  0  0  0  0
 20 21  1  0  0  0  0
 20 52  1  0  0  0  0
 21 22  2  0  0  0  0
 21 23  1  0  0  0  0
 23 24  1  0  0  0  0
 23 25  1  0  0  0  0
 23 53  1  0  0  0  0
 24 25  1  0  0  0  0
 24 54  1  0  0  0  0
 24 55  1  0  0  0  0
 25 56  1  0  0  0  0
 25 57  1  0  0  0  0
 26 27  1  0  0  0  0
 26 58  1  0  0  0  0
 27 28  1  0  0  0  0
 28 59  1  0  0  0  0
 29 30  1  0  0  0  0
 29 31  1  0  0  0  0
 31 60  1  0  0  0  0
 32 33  2  0  0  0  0
 32 34  1  0  0  0  0
 34 35  1  0  0  0  0
 35 36  1  0  0  0  0
 35 40  2  0  0  0  0
 36 37  2  0  0  0  0
 36 61  1  0  0  0  0
 37 38  1  0  0  0  0
 37 62  1  0  0  0  0
 38 39  2  0  0  0  0
 38 63  1  0  0  0  0
 39 40  1  0  0  0  0
 39 64  1  0  0  0  0
 40 65  1  0  0  0  0
 41 66  1  0  0  0  0
M  END
$$$$
