CHEMBL3656119
 OpenBabel04072215373D

 59 62  0  0  0  0  0  0  0  0999 V2000
    1.2357    0.4324   -0.5544 O   0  0  0  0  0  0  0  0  0  0  0  0
    2.2791    0.0390   -0.0503 C   0  0  0  0  0  0  0  0  0  0  0  0
    2.7693   -1.2505   -0.1849 N   0  0  0  0  0  0  0  0  0  0  0  0
    2.1013   -2.3029   -0.8625 C   0  0  0  0  0  0  0  0  0  0  0  0
    0.9858   -2.0950   -1.6763 C   0  0  0  0  0  0  0  0  0  0  0  0
    0.2883   -3.1636   -2.2345 C   0  0  0  0  0  0  0  0  0  0  0  0
    0.7571   -4.4639   -2.0747 C   0  0  0  0  0  0  0  0  0  0  0  0
    0.1505   -5.5701   -2.6274 O   0  0  0  0  0  0  0  0  0  0  0  0
   -0.5207   -5.4405   -3.8253 C   0  0  0  0  0  0  0  0  0  0  0  0
   -0.0920   -4.6244   -4.8699 C   0  0  0  0  0  0  0  0  0  0  0  0
   -0.8756   -4.5543   -6.0055 C   0  0  0  0  0  0  0  0  0  0  0  0
   -2.0036   -5.2721   -6.1819 N   0  0  0  0  0  0  0  0  0  0  0  0
   -2.3684   -6.1045   -5.1745 C   0  0  0  0  0  0  0  0  0  0  0  0
   -3.5748   -6.8728   -5.4569 C   0  0  0  0  0  0  0  0  0  0  0  0
   -4.2618   -7.8348   -4.7377 C   0  0  0  0  0  0  0  0  0  0  0  0
   -5.3646   -8.2923   -5.5207 C   0  0  0  0  0  0  0  0  0  0  0  0
   -6.2947   -9.3568   -5.1729 C   0  0  0  0  0  0  0  0  0  0  0  0
   -6.2014  -10.0137   -4.1443 O   0  0  0  0  0  0  0  0  0  0  0  0
   -7.2262   -9.5807   -6.1448 O   0  0  0  0  0  0  0  0  0  0  0  0
   -7.8723  -10.8639   -6.0913 C   0  0  0  0  0  0  0  0  0  0  0  0
   -8.9673  -10.9348   -5.0317 C   0  0  0  0  0  0  0  0  0  0  0  0
   -9.9931   -9.9850   -5.3075 O   0  0  0  0  0  0  0  0  0  0  0  0
   -5.3299   -7.5631   -6.6958 C   0  0  0  0  0  0  0  0  0  0  0  0
   -4.2515   -6.7222   -6.6476 N   0  0  0  0  0  0  0  0  0  0  0  0
   -1.6608   -6.2208   -3.9872 C   0  0  0  0  0  0  0  0  0  0  0  0
    1.8802   -4.6897   -1.2771 C   0  0  0  0  0  0  0  0  0  0  0  0
    2.5538   -3.6144   -0.6767 C   0  0  0  0  0  0  0  0  0  0  0  0
    3.0885    0.8363    0.7403 N   0  0  0  0  0  0  0  0  0  0  0  0
    2.7882    2.1559    1.1568 C   0  0  0  0  0  0  0  0  0  0  0  0
    1.6003    2.8234    0.8598 C   0  0  0  0  0  0  0  0  0  0  0  0
    1.3741    4.1241    1.2970 C   0  0  0  0  0  0  0  0  0  0  0  0
    2.3275    4.7930    2.0656 C   0  0  0  0  0  0  0  0  0  0  0  0
    1.9432    6.4091    2.5256 Cl  0  0  0  0  0  0  0  0  0  0  0  0
    3.5153    4.1468    2.4157 C   0  0  0  0  0  0  0  0  0  0  0  0
    4.5798    4.7478    3.2912 C   0  0  0  0  0  0  0  0  0  0  0  0
    4.3619    6.0045    3.7539 F   0  0  0  0  0  0  0  0  0  0  0  0
    4.7963    3.9850    4.4043 F   0  0  0  0  0  0  0  0  0  0  0  0
    5.7881    4.7973    2.6551 F   0  0  0  0  0  0  0  0  0  0  0  0
    3.7387    2.8299    1.9374 C   0  0  0  0  0  0  0  0  0  0  0  0
    3.5582   -1.5127    0.3837 H   0  0  0  0  0  0  0  0  0  0  0  0
    0.6087   -1.1037   -1.9040 H   0  0  0  0  0  0  0  0  0  0  0  0
   -0.6131   -2.9457   -2.8002 H   0  0  0  0  0  0  0  0  0  0  0  0
    0.8121   -4.0306   -4.8016 H   0  0  0  0  0  0  0  0  0  0  0  0
   -0.6096   -3.8942   -6.8259 H   0  0  0  0  0  0  0  0  0  0  0  0
   -3.9942   -8.2089   -3.7571 H   0  0  0  0  0  0  0  0  0  0  0  0
   -7.1220  -11.6487   -5.9406 H   0  0  0  0  0  0  0  0  0  0  0  0
   -8.3120  -11.0163   -7.0829 H   0  0  0  0  0  0  0  0  0  0  0  0
   -8.5902  -10.7389   -4.0250 H   0  0  0  0  0  0  0  0  0  0  0  0
   -9.4215  -11.9304   -5.0395 H   0  0  0  0  0  0  0  0  0  0  0  0
   -9.5764   -9.1058   -5.2659 H   0  0  0  0  0  0  0  0  0  0  0  0
   -5.9646   -7.5921   -7.5721 H   0  0  0  0  0  0  0  0  0  0  0  0
   -3.9490   -6.0821   -7.3728 H   0  0  0  0  0  0  0  0  0  0  0  0
   -1.9822   -6.8911   -3.1992 H   0  0  0  0  0  0  0  0  0  0  0  0
    2.2288   -5.7066   -1.1132 H   0  0  0  0  0  0  0  0  0  0  0  0
    3.4154   -3.8269   -0.0496 H   0  0  0  0  0  0  0  0  0  0  0  0
    3.9886    0.4634    0.9985 H   0  0  0  0  0  0  0  0  0  0  0  0
    0.8035    2.3597    0.2806 H   0  0  0  0  0  0  0  0  0  0  0  0
    0.4372    4.6118    1.0273 H   0  0  0  0  0  0  0  0  0  0  0  0
    4.6709    2.3323    2.2028 H   0  0  0  0  0  0  0  0  0  0  0  0
  1  2  2  0  0  0  0
  2  3  1  0  0  0  0
  2 28  1  0  0  0  0
  3  4  1  0  0  0  0
  3 40  1  0  0  0  0
  4  5  1  0  0  0  0
  4 27  2  0  0  0  0
  5  6  2  0  0  0  0
  5 41  1  0  0  0  0
  6  7  1  0  0  0  0
  6 42  1  0  0  0  0
  7  8  1  0  0  0  0
  7 26  2  0  0  0  0
  8  9  1  0  0  0  0
  9 10  1  0  0  0  0
  9 25  2  0  0  0  0
 10 11  2  0  0  0  0
 10 43  1  0  0  0  0
 11 12  1  0  0  0  0
 11 44  1  0  0  0  0
 12 13  2  0  0  0  0
 13 14  1  0  0  0  0
 13 25  1  0  0  0  0
 14 15  2  0  0  0  0
 14 24  1  0  0  0  0
 15 16  1  0  0  0  0
 15 45  1  0  0  0  0
 16 17  1  0  0  0  0
 16 23  2  0  0  0  0
 17 18  2  0  0  0  0
 17 19  1  0  0  0  0
 19 20  1  0  0  0  0
 20 21  1  0  0  0  0
 20 46  1  0  0  0  0
 20 47  1  0  0  0  0
 21 22  1  0  0  0  0
 21 48  1  0  0  0  0
 21 49  1  0  0  0  0
 22 50  1  0  0  0  0
 23 24  1  0  0  0  0
 23 51  1  0  0  0  0
 24 52  1  0  0  0  0
 25 53  1  0  0  0  0
 26 27  1  0  0  0  0
 26 54  1  0  0  0  0
 27 55  1  0  0  0  0
 28 29  1  0  0  0  0
 28 56  1  0  0  0  0
 29 30  1  0  0  0  0
 29 39  2  0  0  0  0
 30 31  2  0  0  0  0
 30 57  1  0  0  0  0
 31 32  1  0  0  0  0
 31 58  1  0  0  0  0
 32 33  1  0  0  0  0
 32 34  2  0  0  0  0
 34 35  1  0  0  0  0
 34 39  1  0  0  0  0
 35 36  1  0  0  0  0
 35 37  1  0  0  0  0
 35 38  1  0  0  0  0
 39 59  1  0  0  0  0
M  END
$$$$
