CHEMBL221224
 OpenBabel04072215363D

 41 43  0  0  0  0  0  0  0  0999 V2000
    1.5854    0.5156   -0.4649 C   0  0  0  0  0  0  0  0  0  0  0  0
    2.3133   -0.2990    0.3111 C   0  0  0  0  0  0  0  0  0  0  0  0
    3.1570    0.1621    1.4573 C   0  0  0  0  0  0  0  0  0  0  0  0
    4.5284   -0.1012    1.1501 O   0  0  0  0  0  0  0  0  0  0  0  0
    5.3018    0.2863    2.2540 N   0  0  0  0  0  0  0  0  0  0  0  0
    6.5322    0.4761    1.8865 C   0  0  0  0  0  0  0  0  0  0  0  0
    7.5462    0.8932    2.8644 C   0  0  0  0  0  0  0  0  0  0  0  0
    7.4363    0.5775    4.2141 C   0  0  0  0  0  0  0  0  0  0  0  0
    6.4659   -0.2927    4.7076 N   0  0  0  0  0  0  0  0  0  0  0  0
    8.3307    0.9849    5.1303 N   0  0  0  0  0  0  0  0  0  0  0  0
    9.3345    1.7465    4.6892 C   0  0  0  0  0  0  0  0  0  0  0  0
    9.5333    2.1216    3.4250 N   0  0  0  0  0  0  0  0  0  0  0  0
    8.6452    1.6554    2.5127 C   0  0  0  0  0  0  0  0  0  0  0  0
    8.8498    1.9878    1.1754 O   0  0  0  0  0  0  0  0  0  0  0  0
   10.1393    2.3228    0.7939 C   0  0  0  0  0  0  0  0  0  0  0  0
   11.2574    1.5957    1.2286 C   0  0  0  0  0  0  0  0  0  0  0  0
   12.5544    1.9594    0.8607 C   0  0  0  0  0  0  0  0  0  0  0  0
   12.6977    3.0186   -0.0366 C   0  0  0  0  0  0  0  0  0  0  0  0
   13.8367    3.5500   -0.5933 N   0  0  0  0  0  0  0  0  0  0  0  0
   13.5097    4.4679   -1.5591 C   0  0  0  0  0  0  0  0  0  0  0  0
   14.5348    5.0389   -2.4673 C   0  0  0  0  0  0  0  0  0  0  0  0
   12.1429    4.6595   -1.4914 C   0  0  0  0  0  0  0  0  0  0  0  0
   11.6094    3.7255   -0.5547 C   0  0  0  0  0  0  0  0  0  0  0  0
   10.3137    3.3780   -0.1134 C   0  0  0  0  0  0  0  0  0  0  0  0
    9.2435    4.0423   -0.5797 F   0  0  0  0  0  0  0  0  0  0  0  0
    0.9892    0.1208   -1.2811 H   0  0  0  0  0  0  0  0  0  0  0  0
    1.5801    1.5905   -0.3124 H   0  0  0  0  0  0  0  0  0  0  0  0
    2.2996   -1.3695    0.1235 H   0  0  0  0  0  0  0  0  0  0  0  0
    2.8665   -0.3779    2.3666 H   0  0  0  0  0  0  0  0  0  0  0  0
    3.0365    1.2369    1.6350 H   0  0  0  0  0  0  0  0  0  0  0  0
    6.8398    0.3577    0.8320 H   0  0  0  0  0  0  0  0  0  0  0  0
    5.5509   -0.1108    4.2940 H   0  0  0  0  0  0  0  0  0  0  0  0
    6.4799   -0.2818    5.7219 H   0  0  0  0  0  0  0  0  0  0  0  0
   10.0653    2.0759    5.4188 H   0  0  0  0  0  0  0  0  0  0  0  0
   11.1321    0.7430    1.8897 H   0  0  0  0  0  0  0  0  0  0  0  0
   13.4115    1.4180    1.2464 H   0  0  0  0  0  0  0  0  0  0  0  0
   14.7736    3.2356   -0.3811 H   0  0  0  0  0  0  0  0  0  0  0  0
   15.5424    4.7030   -2.1983 H   0  0  0  0  0  0  0  0  0  0  0  0
   14.5202    6.1317   -2.4426 H   0  0  0  0  0  0  0  0  0  0  0  0
   14.3413    4.7110   -3.4944 H   0  0  0  0  0  0  0  0  0  0  0  0
   11.5697    5.3447   -2.1044 H   0  0  0  0  0  0  0  0  0  0  0  0
  1  2  2  0  0  0  0
  1 26  1  0  0  0  0
  1 27  1  0  0  0  0
  2  3  1  0  0  0  0
  2 28  1  0  0  0  0
  3  4  1  0  0  0  0
  3 29  1  0  0  0  0
  3 30  1  0  0  0  0
  4  5  1  0  0  0  0
  5  6  2  0  0  0  0
  6  7  1  0  0  0  0
  6 31  1  0  0  0  0
  7  8  1  0  0  0  0
  7 13  2  0  0  0  0
  8  9  1  0  0  0  0
  8 10  2  0  0  0  0
  9 32  1  0  0  0  0
  9 33  1  0  0  0  0
 10 11  1  0  0  0  0
 11 12  2  0  0  0  0
 11 34  1  0  0  0  0
 12 13  1  0  0  0  0
 13 14  1  0  0  0  0
 14 15  1  0  0  0  0
 15 16  1  0  0  0  0
 15 24  2  0  0  0  0
 16 17  2  0  0  0  0
 16 35  1  0  0  0  0
 17 18  1  0  0  0  0
 17 36  1  0  0  0  0
 18 19  1  0  0  0  0
 18 23  2  0  0  0  0
 19 20  1  0  0  0  0
 19 37  1  0  0  0  0
 20 21  1  0  0  0  0
 20 22  2  0  0  0  0
 21 38  1  0  0  0  0
 21 39  1  0  0  0  0
 21 40  1  0  0  0  0
 22 23  1  0  0  0  0
 22 41  1  0  0  0  0
 23 24  1  0  0  0  0
 24 25  1  0  0  0  0
M  END
$$$$
