CHEMBL1978166
 OpenBabel04072215363D

 73 76  0  0  0  0  0  0  0  0999 V2000
    2.4409   -0.0069   -0.7157 C   0  0  0  0  0  0  0  0  0  0  0  0
    0.9374   -0.0194   -0.7694 C   0  0  0  0  0  0  0  0  0  0  0  0
    0.2808    1.1822   -1.0540 C   0  0  0  0  0  0  0  0  0  0  0  0
   -1.0981    1.2123   -1.1295 C   0  0  0  0  0  0  0  0  0  0  0  0
   -1.8305    0.0502   -0.9186 C   0  0  0  0  0  0  0  0  0  0  0  0
   -1.2275   -1.1807   -0.6137 C   0  0  0  0  0  0  0  0  0  0  0  0
   -2.0021   -2.3720   -0.3762 N   0  0  0  0  0  0  0  0  0  0  0  0
   -3.3985   -2.3920   -0.4315 C   0  0  0  0  0  0  0  0  0  0  0  0
   -4.1006   -1.4484   -0.6755 O   0  0  0  0  0  0  0  0  0  0  0  0
   -3.9813   -3.6424   -0.1563 N   0  0  0  0  0  0  0  0  0  0  0  0
   -5.3946   -3.7355   -0.1621 C   0  0  0  0  0  0  0  0  0  0  0  0
   -6.1274   -3.4337   -1.3210 C   0  0  0  0  0  0  0  0  0  0  0  0
   -7.5223   -3.5133   -1.3575 C   0  0  0  0  0  0  0  0  0  0  0  0
   -8.2304   -3.9301   -0.2340 C   0  0  0  0  0  0  0  0  0  0  0  0
   -9.6988   -3.9250   -0.2369 C   0  0  0  0  0  0  0  0  0  0  0  0
  -10.3708   -4.1446   -1.4223 C   0  0  0  0  0  0  0  0  0  0  0  0
  -12.0529   -4.0730   -1.2619 S   0  0  0  0  0  0  0  0  0  0  0  0
  -11.9564   -3.7143    0.4237 C   0  0  0  0  0  0  0  0  0  0  0  0
  -13.0351   -3.4996    1.2965 C   0  0  0  0  0  0  0  0  0  0  0  0
  -14.3938   -3.5868    0.8248 C   0  0  0  0  0  0  0  0  0  0  0  0
  -15.6313   -3.6553    0.4201 C   0  0  0  0  0  0  0  0  0  0  0  0
  -17.0740   -3.7352   -0.0517 C   0  0  0  0  0  0  0  0  0  0  0  0
  -17.1151   -4.2904   -1.4607 C   0  0  0  0  0  0  0  0  0  0  0  0
  -18.5536   -4.3738   -1.9406 C   0  0  0  0  0  0  0  0  0  0  0  0
  -18.6034   -4.9298   -3.3533 C   0  0  0  0  0  0  0  0  0  0  0  0
  -20.0437   -5.0128   -3.8324 C   0  0  0  0  0  0  0  0  0  0  0  0
  -20.0970   -5.5693   -5.2471 C   0  0  0  0  0  0  0  0  0  0  0  0
  -21.5389   -5.6542   -5.7313 C   0  0  0  0  0  0  0  0  0  0  0  0
  -21.5925   -6.2130   -7.1467 C   0  0  0  0  0  0  0  0  0  0  0  0
  -22.9754   -6.2880   -7.5948 N   0  0  0  0  0  0  0  0  0  0  0  0
  -12.6931   -3.2125    2.6029 C   0  0  0  0  0  0  0  0  0  0  0  0
  -11.4320   -3.1409    3.0765 N   0  0  0  0  0  0  0  0  0  0  0  0
  -10.3932   -3.3560    2.2474 C   0  0  0  0  0  0  0  0  0  0  0  0
   -9.1538   -3.2817    2.8540 N   0  0  0  0  0  0  0  0  0  0  0  0
  -10.6193   -3.6542    0.8704 C   0  0  0  0  0  0  0  0  0  0  0  0
   -7.4891   -4.3128    0.8913 C   0  0  0  0  0  0  0  0  0  0  0  0
   -6.0970   -4.1483    0.9671 C   0  0  0  0  0  0  0  0  0  0  0  0
    0.1804   -1.1984   -0.5466 C   0  0  0  0  0  0  0  0  0  0  0  0
    2.8341    1.0005   -0.9000 H   0  0  0  0  0  0  0  0  0  0  0  0
    2.8574   -0.6624   -1.4866 H   0  0  0  0  0  0  0  0  0  0  0  0
    2.7953   -0.3167    0.2717 H   0  0  0  0  0  0  0  0  0  0  0  0
    0.8324    2.1046   -1.2208 H   0  0  0  0  0  0  0  0  0  0  0  0
   -1.6233    2.1372   -1.3527 H   0  0  0  0  0  0  0  0  0  0  0  0
   -2.9009    0.1749   -1.0104 H   0  0  0  0  0  0  0  0  0  0  0  0
   -1.4924   -3.2179   -0.1774 H   0  0  0  0  0  0  0  0  0  0  0  0
   -3.4644   -4.3082    0.3890 H   0  0  0  0  0  0  0  0  0  0  0  0
   -5.6127   -3.1127   -2.2253 H   0  0  0  0  0  0  0  0  0  0  0  0
   -8.0317   -3.2514   -2.2747 H   0  0  0  0  0  0  0  0  0  0  0  0
   -9.9522   -4.3497   -2.3971 H   0  0  0  0  0  0  0  0  0  0  0  0
  -17.5133   -2.7320   -0.0133 H   0  0  0  0  0  0  0  0  0  0  0  0
  -17.6353   -4.3757    0.6379 H   0  0  0  0  0  0  0  0  0  0  0  0
  -16.6514   -5.2849   -1.4867 H   0  0  0  0  0  0  0  0  0  0  0  0
  -16.5301   -3.6509   -2.1341 H   0  0  0  0  0  0  0  0  0  0  0  0
  -19.0128   -3.3778   -1.9152 H   0  0  0  0  0  0  0  0  0  0  0  0
  -19.1343   -5.0155   -1.2663 H   0  0  0  0  0  0  0  0  0  0  0  0
  -18.1436   -5.9255   -3.3773 H   0  0  0  0  0  0  0  0  0  0  0  0
  -18.0220   -4.2875   -4.0262 H   0  0  0  0  0  0  0  0  0  0  0  0
  -20.5014   -4.0162   -3.8055 H   0  0  0  0  0  0  0  0  0  0  0  0
  -20.6229   -5.6539   -3.1566 H   0  0  0  0  0  0  0  0  0  0  0  0
  -19.6360   -6.5644   -5.2700 H   0  0  0  0  0  0  0  0  0  0  0  0
  -19.5146   -4.9267   -5.9188 H   0  0  0  0  0  0  0  0  0  0  0  0
  -21.9941   -4.6559   -5.7025 H   0  0  0  0  0  0  0  0  0  0  0  0
  -22.1159   -6.2922   -5.0497 H   0  0  0  0  0  0  0  0  0  0  0  0
  -21.1409   -7.2109   -7.1763 H   0  0  0  0  0  0  0  0  0  0  0  0
  -21.0247   -5.5689   -7.8267 H   0  0  0  0  0  0  0  0  0  0  0  0
  -23.4976   -6.9145   -6.9836 H   0  0  0  0  0  0  0  0  0  0  0  0
  -23.0055   -6.7013   -8.5250 H   0  0  0  0  0  0  0  0  0  0  0  0
  -13.4535   -3.0252    3.3567 H   0  0  0  0  0  0  0  0  0  0  0  0
   -9.1039   -2.9345    3.7898 H   0  0  0  0  0  0  0  0  0  0  0  0
   -8.3627   -3.0354    2.2901 H   0  0  0  0  0  0  0  0  0  0  0  0
   -7.9912   -4.7014    1.7580 H   0  0  0  0  0  0  0  0  0  0  0  0
   -5.6094   -4.2928    1.9262 H   0  0  0  0  0  0  0  0  0  0  0  0
    0.7122   -2.1201   -0.3203 H   0  0  0  0  0  0  0  0  0  0  0  0
  1  2  1  0  0  0  0
  1 39  1  0  0  0  0
  1 40  1  0  0  0  0
  1 41  1  0  0  0  0
  2  3  1  0  0  0  0
  2 38  2  0  0  0  0
  3  4  2  0  0  0  0
  3 42  1  0  0  0  0
  4  5  1  0  0  0  0
  4 43  1  0  0  0  0
  5  6  2  0  0  0  0
  5 44  1  0  0  0  0
  6  7  1  0  0  0  0
  6 38  1  0  0  0  0
  7  8  1  0  0  0  0
  7 45  1  0  0  0  0
  8  9  2  0  0  0  0
  8 10  1  0  0  0  0
 10 11  1  0  0  0  0
 10 46  1  0  0  0  0
 11 12  1  0  0  0  0
 11 37  2  0  0  0  0
 12 13  2  0  0  0  0
 12 47  1  0  0  0  0
 13 14  1  0  0  0  0
 13 48  1  0  0  0  0
 14 15  1  0  0  0  0
 14 36  2  0  0  0  0
 15 16  2  0  0  0  0
 15 35  1  0  0  0  0
 16 17  1  0  0  0  0
 16 49  1  0  0  0  0
 17 18  1  0  0  0  0
 18 19  1  0  0  0  0
 18 35  2  0  0  0  0
 19 20  1  0  0  0  0
 19 31  2  0  0  0  0
 20 21  3  0  0  0  0
 21 22  1  0  0  0  0
 22 23  1  0  0  0  0
 22 50  1  0  0  0  0
 22 51  1  0  0  0  0
 23 24  1  0  0  0  0
 23 52  1  0  0  0  0
 23 53  1  0  0  0  0
 24 25  1  0  0  0  0
 24 54  1  0  0  0  0
 24 55  1  0  0  0  0
 25 26  1  0  0  0  0
 25 56  1  0  0  0  0
 25 57  1  0  0  0  0
 26 27  1  0  0  0  0
 26 58  1  0  0  0  0
 26 59  1  0  0  0  0
 27 28  1  0  0  0  0
 27 60  1  0  0  0  0
 27 61  1  0  0  0  0
 28 29  1  0  0  0  0
 28 62  1  0  0  0  0
 28 63  1  0  0  0  0
 29 30  1  0  0  0  0
 29 64  1  0  0  0  0
 29 65  1  0  0  0  0
 30 66  1  0  0  0  0
 30 67  1  0  0  0  0
 31 32  1  0  0  0  0
 31 68  1  0  0  0  0
 32 33  2  0  0  0  0
 33 34  1  0  0  0  0
 33 35  1  0  0  0  0
 34 69  1  0  0  0  0
 34 70  1  0  0  0  0
 36 37  1  0  0  0  0
 36 71  1  0  0  0  0
 37 72  1  0  0  0  0
 38 73  1  0  0  0  0
M  END
$$$$
