CHEMBL1076471
 OpenBabel04072215353D

 79 84  0  0  1  0  0  0  0  0999 V2000
    0.0480   -1.6528    2.8840 C   0  0  0  0  0  0  0  0  0  0  0  0
    0.7775   -0.6615    2.0125 C   0  0  0  0  0  0  0  0  0  0  0  0
    0.7686    0.6870    2.3725 C   0  0  0  0  0  0  0  0  0  0  0  0
    1.4400    1.6281    1.5946 C   0  0  0  0  0  0  0  0  0  0  0  0
    2.1521    1.2466    0.4542 C   0  0  0  0  0  0  0  0  0  0  0  0
    2.8583    2.1677   -0.3641 N   0  0  0  0  0  0  0  0  0  0  0  0
    2.9375    3.5335   -0.1766 C   0  0  0  0  0  0  0  0  0  0  0  0
    2.3842    4.1884    0.7013 O   0  0  0  0  0  0  0  0  0  0  0  0
    3.7579    4.3017   -1.1639 C   0  0  0  0  0  0  0  0  0  0  0  0
    4.8958    3.7631   -1.7808 C   0  0  0  0  0  0  0  0  0  0  0  0
    5.6589    4.5593   -2.6398 C   0  0  0  0  0  0  0  0  0  0  0  0
    5.2873    5.8823   -2.8937 C   0  0  0  0  0  0  0  0  0  0  0  0
    4.1435    6.4311   -2.2957 C   0  0  0  0  0  0  0  0  0  0  0  0
    3.7046    7.8451   -2.5903 C   0  0  0  0  0  0  0  0  0  0  0  0
    4.5154    8.4905   -3.4754 F   0  0  0  0  0  0  0  0  0  0  0  0
    2.4550    7.8958   -3.1291 F   0  0  0  0  0  0  0  0  0  0  0  0
    3.6680    8.6285   -1.4786 F   0  0  0  0  0  0  0  0  0  0  0  0
    3.3962    5.6295   -1.4204 C   0  0  0  0  0  0  0  0  0  0  0  0
    2.1497   -0.1058    0.0790 C   0  0  0  0  0  0  0  0  0  0  0  0
    1.4564   -1.0601    0.8377 C   0  0  0  0  0  0  0  0  0  0  0  0
    1.1936   -2.3613    0.3608 N   0  0  0  0  0  0  0  0  0  0  0  0
    1.8960   -3.1549   -0.4922 C   0  0  0  0  0  0  0  0  0  0  0  0
    1.2069   -3.9713   -1.2832 N   0  0  0  0  0  0  0  0  0  0  0  0
    1.3790   -5.1829   -0.6603 C   0  0  0  0  0  0  0  0  0  0  0  0
    0.5824   -6.3355   -0.7063 C   0  0  0  0  0  0  0  0  0  0  0  0
    0.8863   -7.3793    0.1841 C   0  0  0  0  0  0  0  0  0  0  0  0
    1.9983   -7.3094    1.0283 C   0  0  0  0  0  0  0  0  0  0  0  0
    2.8572   -6.2039    1.0164 C   0  0  0  0  0  0  0  0  0  0  0  0
    2.4893   -5.1511    0.1710 C   0  0  0  0  0  0  0  0  0  0  0  0
    3.0122   -3.8835   -0.0788 N   0  0  0  0  0  0  0  0  0  0  0  0
    4.3812   -3.5471   -0.2483 C   0  0  0  0  0  0  0  0  0  0  0  0
    5.2491   -4.5570   -0.6390 C   0  0  0  0  0  0  0  0  0  0  0  0
    6.5765   -4.2333   -0.8070 C   0  0  0  0  0  0  0  0  0  0  0  0
    7.4520   -5.2697   -1.1425 N   0  0  0  0  0  0  0  0  0  0  0  0
    8.8788   -5.0457   -0.9710 C   0  0  0  0  0  0  0  0  0  0  0  0
    9.1967   -5.1801    0.5186 C   0  0  0  0  0  0  0  0  0  0  0  0
   10.6904   -5.1090    0.8136 C   0  0  0  0  0  0  0  0  0  0  0  0
   11.0061   -5.2120    2.3182 C   0  0  3  0  0  0  0  0  0  0  0  0
   12.5374   -5.1200    2.5243 C   0  0  0  0  0  0  0  0  0  0  0  0
   12.8961   -5.2584    3.9050 O   0  0  0  0  0  0  0  0  0  0  0  0
   12.4273   -6.5166    4.4071 C   0  0  0  0  0  0  0  0  0  0  0  0
   10.9035   -6.6103    4.2854 C   0  0  0  0  0  0  0  0  0  0  0  0
   10.4605   -6.4647    2.8894 N   0  0  0  0  0  0  0  0  0  0  0  0
    7.0217   -2.9915   -0.5690 N   0  0  0  0  0  0  0  0  0  0  0  0
    6.1020   -2.0752   -0.2198 C   0  0  0  0  0  0  0  0  0  0  0  0
    4.7831   -2.2747   -0.0840 N   0  0  0  0  0  0  0  0  0  0  0  0
   -0.3787   -1.1689    3.7695 H   0  0  0  0  0  0  0  0  0  0  0  0
    0.7385   -2.4252    3.2397 H   0  0  0  0  0  0  0  0  0  0  0  0
   -0.7763   -2.1225    2.3381 H   0  0  0  0  0  0  0  0  0  0  0  0
    0.2240    1.0228    3.2511 H   0  0  0  0  0  0  0  0  0  0  0  0
    1.3715    2.6629    1.9122 H   0  0  0  0  0  0  0  0  0  0  0  0
    3.2973    1.7706   -1.1837 H   0  0  0  0  0  0  0  0  0  0  0  0
    5.2267    2.7488   -1.5779 H   0  0  0  0  0  0  0  0  0  0  0  0
    6.5553    4.1552   -3.1037 H   0  0  0  0  0  0  0  0  0  0  0  0
    5.9001    6.4879   -3.5627 H   0  0  0  0  0  0  0  0  0  0  0  0
    2.5186    6.0520   -0.9237 H   0  0  0  0  0  0  0  0  0  0  0  0
    2.6502   -0.4213   -0.8314 H   0  0  0  0  0  0  0  0  0  0  0  0
    0.2164   -2.3555    0.0576 H   0  0  0  0  0  0  0  0  0  0  0  0
   -0.2894   -6.3728   -1.3410 H   0  0  0  0  0  0  0  0  0  0  0  0
    0.2273   -8.2417    0.2301 H   0  0  0  0  0  0  0  0  0  0  0  0
    2.1884   -8.1229    1.7269 H   0  0  0  0  0  0  0  0  0  0  0  0
    3.7127   -6.1427    1.6825 H   0  0  0  0  0  0  0  0  0  0  0  0
    4.9214   -5.5716   -0.8281 H   0  0  0  0  0  0  0  0  0  0  0  0
    7.1899   -5.7561   -1.9934 H   0  0  0  0  0  0  0  0  0  0  0  0
    9.2122   -4.0864   -1.3846 H   0  0  0  0  0  0  0  0  0  0  0  0
    9.4156   -5.8278   -1.5230 H   0  0  0  0  0  0  0  0  0  0  0  0
    8.7896   -6.1390    0.8620 H   0  0  0  0  0  0  0  0  0  0  0  0
    8.6797   -4.3990    1.0881 H   0  0  0  0  0  0  0  0  0  0  0  0
   11.0819   -4.1571    0.4323 H   0  0  0  0  0  0  0  0  0  0  0  0
   11.2076   -5.9071    0.2659 H   0  0  0  0  0  0  0  0  0  0  0  0
   10.5352   -4.3709    2.8429 H   0  0  0  0  0  0  0  0  0  0  0  0
   12.8989   -4.1414    2.1912 H   0  0  0  0  0  0  0  0  0  0  0  0
   13.0664   -5.8834    1.9402 H   0  0  0  0  0  0  0  0  0  0  0  0
   12.7219   -6.5863    5.4586 H   0  0  0  0  0  0  0  0  0  0  0  0
   12.9214   -7.3327    3.8660 H   0  0  0  0  0  0  0  0  0  0  0  0
   10.4352   -5.8255    4.8921 H   0  0  0  0  0  0  0  0  0  0  0  0
   10.5604   -7.5768    4.6689 H   0  0  0  0  0  0  0  0  0  0  0  0
    9.4415   -6.4205    2.8814 H   0  0  0  0  0  0  0  0  0  0  0  0
    6.4720   -1.0750   -0.0178 H   0  0  0  0  0  0  0  0  0  0  0  0
  1  2  1  0  0  0  0
  1 47  1  0  0  0  0
  1 48  1  0  0  0  0
  1 49  1  0  0  0  0
  2  3  1  0  0  0  0
  2 20  2  0  0  0  0
  3  4  2  0  0  0  0
  3 50  1  0  0  0  0
  4  5  1  0  0  0  0
  4 51  1  0  0  0  0
  5  6  1  0  0  0  0
  5 19  2  0  0  0  0
  6  7  1  0  0  0  0
  6 52  1  0  0  0  0
  7  8  2  0  0  0  0
  7  9  1  0  0  0  0
  9 10  1  0  0  0  0
  9 18  2  0  0  0  0
 10 11  2  0  0  0  0
 10 53  1  0  0  0  0
 11 12  1  0  0  0  0
 11 54  1  0  0  0  0
 12 13  2  0  0  0  0
 12 55  1  0  0  0  0
 13 14  1  0  0  0  0
 13 18  1  0  0  0  0
 14 15  1  0  0  0  0
 14 16  1  0  0  0  0
 14 17  1  0  0  0  0
 18 56  1  0  0  0  0
 19 20  1  0  0  0  0
 19 57  1  0  0  0  0
 20 21  1  0  0  0  0
 21 22  1  0  0  0  0
 21 58  1  0  0  0  0
 22 23  2  0  0  0  0
 22 30  1  0  0  0  0
 23 24  1  0  0  0  0
 24 25  1  0  0  0  0
 24 29  2  0  0  0  0
 25 26  2  0  0  0  0
 25 59  1  0  0  0  0
 26 27  1  0  0  0  0
 26 60  1  0  0  0  0
 27 28  2  0  0  0  0
 27 61  1  0  0  0  0
 28 29  1  0  0  0  0
 28 62  1  0  0  0  0
 29 30  1  0  0  0  0
 30 31  1  0  0  0  0
 31 32  1  0  0  0  0
 31 46  2  0  0  0  0
 32 33  2  0  0  0  0
 32 63  1  0  0  0  0
 33 34  1  0  0  0  0
 33 44  1  0  0  0  0
 34 35  1  0  0  0  0
 34 64  1  0  0  0  0
 35 36  1  0  0  0  0
 35 65  1  0  0  0  0
 35 66  1  0  0  0  0
 36 37  1  0  0  0  0
 36 67  1  0  0  0  0
 36 68  1  0  0  0  0
 37 38  1  0  0  0  0
 37 69  1  0  0  0  0
 37 70  1  0  0  0  0
 38 39  1  0  0  0  0
 38 43  1  0  0  0  0
 38 71  1  0  0  0  0
 39 40  1  0  0  0  0
 39 72  1  0  0  0  0
 39 73  1  0  0  0  0
 40 41  1  0  0  0  0
 41 42  1  0  0  0  0
 41 74  1  0  0  0  0
 41 75  1  0  0  0  0
 42 43  1  0  0  0  0
 42 76  1  0  0  0  0
 42 77  1  0  0  0  0
 43 78  1  0  0  0  0
 44 45  2  0  0  0  0
 45 46  1  0  0  0  0
 45 79  1  0  0  0  0
M  END
$$$$
