CHEMBL517956
 OpenBabel04072215393D

 73 75  0  0  1  0  0  0  0  0999 V2000
    5.5986    0.0243   -2.5403 C   0  0  0  0  0  0  0  0  0  0  0  0
    4.9474   -1.0127   -1.6766 C   0  0  0  0  0  0  0  0  0  0  0  0
    5.6240   -2.1982   -1.3768 C   0  0  0  0  0  0  0  0  0  0  0  0
    4.9136   -3.3277   -0.9810 C   0  0  0  0  0  0  0  0  0  0  0  0
    3.5376   -3.2579   -0.9084 C   0  0  0  0  0  0  0  0  0  0  0  0
    2.8061   -4.4157   -0.8630 O   0  0  0  0  0  0  0  0  0  0  0  0
    2.8775   -2.0401   -0.9738 C   0  0  0  0  0  0  0  0  0  0  0  0
    3.5932   -0.8740   -1.2859 C   0  0  0  0  0  0  0  0  0  0  0  0
    2.9424    0.4780   -1.1654 C   0  0  0  0  0  0  0  0  0  0  0  0
    3.1603    1.0857    0.2506 C   0  0  0  0  0  0  0  0  0  0  0  0
    2.3943    2.4435    0.5401 C   0  0  1  0  0  0  0  0  0  0  0  0
    0.9032    2.2223    0.2724 C   0  0  2  0  0  0  0  0  0  0  0  0
    0.2888    2.6180   -1.0634 C   0  0  0  0  0  0  0  0  0  0  0  0
   -1.1747    2.1855   -0.8821 C   0  0  0  0  0  0  0  0  0  0  0  0
   -1.2135    1.4659    0.5145 C   0  0  2  0  0  0  0  0  0  0  0  0
   -2.6070    1.0361    0.9797 C   0  0  2  0  0  0  0  0  0  0  0  0
   -2.5272    0.3197    2.3368 C   0  0  0  0  0  0  0  0  0  0  0  0
   -3.1475    0.0889   -0.1335 C   0  0  0  0  0  0  0  0  0  0  0  0
   -4.5381   -0.4550    0.1001 C   0  0  0  0  0  0  0  0  0  0  0  0
   -4.9385   -1.4024   -1.0360 C   0  0  0  0  0  0  0  0  0  0  0  0
   -6.3328   -1.9880   -0.8154 C   0  0  0  0  0  0  0  0  0  0  0  0
   -6.7403   -2.8788   -1.9881 C   0  0  0  0  0  0  0  0  0  0  0  0
   -6.4140   -2.7796    0.4938 C   0  0  0  0  0  0  0  0  0  0  0  0
   -0.2349    2.3906    1.3228 C   0  0  2  0  0  0  0  0  0  0  0  0
   -0.9052    3.7880    1.4765 C   0  0  0  0  0  0  0  0  0  0  0  0
    0.3948    2.0112    2.6629 C   0  0  0  0  0  0  0  0  0  0  0  0
    1.5297    3.0186    2.9697 C   0  0  0  0  0  0  0  0  0  0  0  0
    2.6898    2.9916    1.9624 C   0  0  1  0  0  0  0  0  0  0  0  0
    3.7940    2.3260    2.5770 O   0  0  0  0  0  0  0  0  0  0  0  0
    6.4976   -0.3803   -3.0155 H   0  0  0  0  0  0  0  0  0  0  0  0
    5.8472    0.9315   -1.9911 H   0  0  0  0  0  0  0  0  0  0  0  0
    4.9173    0.2702   -3.3692 H   0  0  0  0  0  0  0  0  0  0  0  0
    6.6994   -2.2614   -1.5203 H   0  0  0  0  0  0  0  0  0  0  0  0
    5.4351   -4.2624   -0.8003 H   0  0  0  0  0  0  0  0  0  0  0  0
    2.7476   -4.7022   -1.7725 H   0  0  0  0  0  0  0  0  0  0  0  0
    1.8004   -1.9994   -0.8080 H   0  0  0  0  0  0  0  0  0  0  0  0
    1.8825    0.3276   -1.3940 H   0  0  0  0  0  0  0  0  0  0  0  0
    3.3094    1.1788   -1.9203 H   0  0  0  0  0  0  0  0  0  0  0  0
    4.2354    1.2280    0.4077 H   0  0  0  0  0  0  0  0  0  0  0  0
    2.8390    0.3448    0.9998 H   0  0  0  0  0  0  0  0  0  0  0  0
    2.7774    3.1707   -0.1869 H   0  0  0  0  0  0  0  0  0  0  0  0
    0.9474    1.1299    0.2042 H   0  0  0  0  0  0  0  0  0  0  0  0
    0.3790    3.6883   -1.2697 H   0  0  0  0  0  0  0  0  0  0  0  0
    0.7348    2.0760   -1.9017 H   0  0  0  0  0  0  0  0  0  0  0  0
   -1.4768    1.5494   -1.7164 H   0  0  0  0  0  0  0  0  0  0  0  0
   -1.8297    3.0672   -0.8915 H   0  0  0  0  0  0  0  0  0  0  0  0
   -0.7259    0.4850    0.3841 H   0  0  0  0  0  0  0  0  0  0  0  0
   -3.2804    1.8965    1.0603 H   0  0  0  0  0  0  0  0  0  0  0  0
   -2.9912    0.9340    3.1141 H   0  0  0  0  0  0  0  0  0  0  0  0
   -3.0269   -0.6526    2.3469 H   0  0  0  0  0  0  0  0  0  0  0  0
   -1.4981    0.1164    2.6430 H   0  0  0  0  0  0  0  0  0  0  0  0
   -3.1816    0.6231   -1.0882 H   0  0  0  0  0  0  0  0  0  0  0  0
   -2.4505   -0.7478   -0.2664 H   0  0  0  0  0  0  0  0  0  0  0  0
   -4.5584   -0.9942    1.0498 H   0  0  0  0  0  0  0  0  0  0  0  0
   -5.2493    0.3753    0.1714 H   0  0  0  0  0  0  0  0  0  0  0  0
   -4.9134   -0.8473   -1.9843 H   0  0  0  0  0  0  0  0  0  0  0  0
   -4.1956   -2.2061   -1.1277 H   0  0  0  0  0  0  0  0  0  0  0  0
   -7.0431   -1.1517   -0.7615 H   0  0  0  0  0  0  0  0  0  0  0  0
   -6.3617   -2.4956   -2.9413 H   0  0  0  0  0  0  0  0  0  0  0  0
   -7.8315   -2.9224   -2.0562 H   0  0  0  0  0  0  0  0  0  0  0  0
   -6.3713   -3.9029   -1.8623 H   0  0  0  0  0  0  0  0  0  0  0  0
   -5.6189   -3.5317    0.5470 H   0  0  0  0  0  0  0  0  0  0  0  0
   -6.3149   -2.1255    1.3655 H   0  0  0  0  0  0  0  0  0  0  0  0
   -7.3780   -3.2892    0.5850 H   0  0  0  0  0  0  0  0  0  0  0  0
   -0.4389    4.5487    0.8463 H   0  0  0  0  0  0  0  0  0  0  0  0
   -1.9766    3.7575    1.2452 H   0  0  0  0  0  0  0  0  0  0  0  0
   -0.8897    4.1512    2.5097 H   0  0  0  0  0  0  0  0  0  0  0  0
   -0.3452    2.0530    3.4712 H   0  0  0  0  0  0  0  0  0  0  0  0
    0.8043    0.9961    2.6514 H   0  0  0  0  0  0  0  0  0  0  0  0
    1.8938    2.8628    3.9915 H   0  0  0  0  0  0  0  0  0  0  0  0
    1.1330    4.0417    2.9664 H   0  0  0  0  0  0  0  0  0  0  0  0
    3.0320    4.0277    1.8362 H   0  0  0  0  0  0  0  0  0  0  0  0
    3.4613    1.5047    2.9792 H   0  0  0  0  0  0  0  0  0  0  0  0
  1  2  1  0  0  0  0
  1 30  1  0  0  0  0
  1 31  1  0  0  0  0
  1 32  1  0  0  0  0
  2  3  1  0  0  0  0
  2  8  2  0  0  0  0
  3  4  2  0  0  0  0
  3 33  1  0  0  0  0
  4  5  1  0  0  0  0
  4 34  1  0  0  0  0
  5  6  1  0  0  0  0
  5  7  2  0  0  0  0
  6 35  1  0  0  0  0
  7  8  1  0  0  0  0
  7 36  1  0  0  0  0
  8  9  1  0  0  0  0
  9 10  1  0  0  0  0
  9 37  1  0  0  0  0
  9 38  1  0  0  0  0
 10 39  1  0  0  0  0
 10 40  1  0  0  0  0
 11 12  1  0  0  0  0
 11 28  1  0  0  0  0
 11 10  1  0  0  0  0
 11 41  1  6  0  0  0
 12 13  1  0  0  0  0
 12 24  1  0  0  0  0
 12 42  1  6  0  0  0
 13 14  1  0  0  0  0
 13 43  1  0  0  0  0
 13 44  1  0  0  0  0
 14 15  1  0  0  0  0
 14 45  1  0  0  0  0
 14 46  1  0  0  0  0
 15 24  1  0  0  0  0
 15 16  1  0  0  0  0
 15 47  1  6  0  0  0
 16 17  1  0  0  0  0
 16 18  1  0  0  0  0
 16 48  1  1  0  0  0
 17 49  1  0  0  0  0
 17 50  1  0  0  0  0
 17 51  1  0  0  0  0
 18 19  1  0  0  0  0
 18 52  1  0  0  0  0
 18 53  1  0  0  0  0
 19 20  1  0  0  0  0
 19 54  1  0  0  0  0
 19 55  1  0  0  0  0
 20 21  1  0  0  0  0
 20 56  1  0  0  0  0
 20 57  1  0  0  0  0
 21 22  1  0  0  0  0
 21 23  1  0  0  0  0
 21 58  1  0  0  0  0
 22 59  1  0  0  0  0
 22 60  1  0  0  0  0
 22 61  1  0  0  0  0
 23 62  1  0  0  0  0
 23 63  1  0  0  0  0
 23 64  1  0  0  0  0
 24 26  1  0  0  0  0
 24 25  1  1  0  0  0
 25 65  1  0  0  0  0
 25 66  1  0  0  0  0
 25 67  1  0  0  0  0
 26 27  1  0  0  0  0
 26 68  1  0  0  0  0
 26 69  1  0  0  0  0
 27 28  1  0  0  0  0
 27 70  1  0  0  0  0
 27 71  1  0  0  0  0
 28 29  1  0  0  0  0
 28 72  1  6  0  0  0
 29 73  1  0  0  0  0
M  END
$$$$
