CHEMBL1681958
 OpenBabel04072215363D

 38 39  0  0  0  0  0  0  0  0999 V2000
   11.0377    2.6046    3.4900 C   0  0  0  0  0  0  0  0  0  0  0  0
   10.4308    2.6772    2.2016 O   0  0  0  0  0  0  0  0  0  0  0  0
    9.0529    2.8411    2.3840 N   0  0  0  0  0  0  0  0  0  0  0  0
    8.4594    2.9505    1.2353 C   0  0  0  0  0  0  0  0  0  0  0  0
    7.0092    3.1811    1.1586 C   0  0  0  0  0  0  0  0  0  0  0  0
    6.2986    3.7413    2.2162 C   0  0  0  0  0  0  0  0  0  0  0  0
    6.9169    4.2606    3.3519 N   0  0  0  0  0  0  0  0  0  0  0  0
    4.9668    3.9216    2.1890 N   0  0  0  0  0  0  0  0  0  0  0  0
    4.3400    3.5745    1.0631 C   0  0  0  0  0  0  0  0  0  0  0  0
    4.9192    3.0519   -0.0182 N   0  0  0  0  0  0  0  0  0  0  0  0
    6.2487    2.8008    0.0691 C   0  0  0  0  0  0  0  0  0  0  0  0
    6.8182    2.0263   -0.9497 O   0  0  0  0  0  0  0  0  0  0  0  0
    5.9492    1.1390   -1.5743 C   0  0  0  0  0  0  0  0  0  0  0  0
    5.0720    0.3603   -0.8162 C   0  0  0  0  0  0  0  0  0  0  0  0
    4.0613   -0.3726   -1.4319 C   0  0  0  0  0  0  0  0  0  0  0  0
    3.9421   -0.4143   -2.8223 C   0  0  0  0  0  0  0  0  0  0  0  0
    2.8786   -1.0912   -3.4615 N   0  0  0  0  0  0  0  0  0  0  0  0
    1.9680   -1.9154   -2.8535 C   0  0  0  0  0  0  0  0  0  0  0  0
    1.9728   -2.3018   -1.6899 O   0  0  0  0  0  0  0  0  0  0  0  0
    1.0066   -2.2950   -3.7436 O   0  0  0  0  0  0  0  0  0  0  0  0
    0.0338   -3.1657   -3.1556 C   0  0  0  0  0  0  0  0  0  0  0  0
    4.8954    0.2686   -3.5907 C   0  0  0  0  0  0  0  0  0  0  0  0
    5.9043    1.0304   -2.9679 C   0  0  0  0  0  0  0  0  0  0  0  0
    7.0684    1.8275   -3.9622 Cl  0  0  0  0  0  0  0  0  0  0  0  0
   12.1068    2.4172    3.3644 H   0  0  0  0  0  0  0  0  0  0  0  0
   10.6011    1.7832    4.0677 H   0  0  0  0  0  0  0  0  0  0  0  0
   10.9053    3.5492    4.0287 H   0  0  0  0  0  0  0  0  0  0  0  0
    9.0220    2.8793    0.2873 H   0  0  0  0  0  0  0  0  0  0  0  0
    7.6809    3.6664    3.6742 H   0  0  0  0  0  0  0  0  0  0  0  0
    6.2194    4.4785    4.0570 H   0  0  0  0  0  0  0  0  0  0  0  0
    3.2646    3.7118    1.0312 H   0  0  0  0  0  0  0  0  0  0  0  0
    5.1001    0.3797    0.2709 H   0  0  0  0  0  0  0  0  0  0  0  0
    3.3459   -0.8557   -0.7757 H   0  0  0  0  0  0  0  0  0  0  0  0
    2.7476   -0.9696   -4.4569 H   0  0  0  0  0  0  0  0  0  0  0  0
   -0.7418   -3.3751   -3.8943 H   0  0  0  0  0  0  0  0  0  0  0  0
   -0.4409   -2.6951   -2.2855 H   0  0  0  0  0  0  0  0  0  0  0  0
    0.5036   -4.1115   -2.8657 H   0  0  0  0  0  0  0  0  0  0  0  0
    4.8600    0.2186   -4.6776 H   0  0  0  0  0  0  0  0  0  0  0  0
  1  2  1  0  0  0  0
  1 25  1  0  0  0  0
  1 26  1  0  0  0  0
  1 27  1  0  0  0  0
  2  3  1  0  0  0  0
  3  4  2  0  0  0  0
  4  5  1  0  0  0  0
  4 28  1  0  0  0  0
  5  6  1  0  0  0  0
  5 11  2  0  0  0  0
  6  7  1  0  0  0  0
  6  8  2  0  0  0  0
  7 29  1  0  0  0  0
  7 30  1  0  0  0  0
  8  9  1  0  0  0  0
  9 10  2  0  0  0  0
  9 31  1  0  0  0  0
 10 11  1  0  0  0  0
 11 12  1  0  0  0  0
 12 13  1  0  0  0  0
 13 14  1  0  0  0  0
 13 23  2  0  0  0  0
 14 15  2  0  0  0  0
 14 32  1  0  0  0  0
 15 16  1  0  0  0  0
 15 33  1  0  0  0  0
 16 17  1  0  0  0  0
 16 22  2  0  0  0  0
 17 18  1  0  0  0  0
 17 34  1  0  0  0  0
 18 19  2  0  0  0  0
 18 20  1  0  0  0  0
 20 21  1  0  0  0  0
 21 35  1  0  0  0  0
 21 36  1  0  0  0  0
 21 37  1  0  0  0  0
 22 23  1  0  0  0  0
 22 38  1  0  0  0  0
 23 24  1  0  0  0  0
M  END
$$$$
