CHEMBL3690490
 OpenBabel04072215373D

 61 65  0  0  1  0  0  0  0  0999 V2000
    5.3028    1.1527    3.3097 O   0  0  0  0  0  0  0  0  0  0  0  0
    6.2775    0.4395    3.4772 C   0  0  0  0  0  0  0  0  0  0  0  0
    6.9889    0.4595    4.6612 N   0  0  0  0  0  0  0  0  0  0  0  0
    6.6535    1.4896    5.6543 C   0  0  0  0  0  0  0  0  0  0  0  0
    7.2985    2.8588    5.3992 C   0  0  0  0  0  0  0  0  0  0  0  0
    8.1386    2.8279    4.3372 F   0  0  0  0  0  0  0  0  0  0  0  0
    6.3865    3.8277    5.1870 F   0  0  0  0  0  0  0  0  0  0  0  0
    8.0432    3.2258    6.4717 F   0  0  0  0  0  0  0  0  0  0  0  0
    6.8090   -0.4708    2.5933 N   0  0  0  0  0  0  0  0  0  0  0  0
    6.3313   -0.7849    1.3018 C   0  0  0  0  0  0  0  0  0  0  0  0
    5.1951   -0.2214    0.7285 C   0  0  0  0  0  0  0  0  0  0  0  0
    4.7662   -0.6376   -0.5328 C   0  0  0  0  0  0  0  0  0  0  0  0
    5.4600   -1.6311   -1.2252 C   0  0  0  0  0  0  0  0  0  0  0  0
    6.6161   -2.2077   -0.6815 C   0  0  0  0  0  0  0  0  0  0  0  0
    7.3531   -3.2398   -1.4290 C   0  0  0  0  0  0  0  0  0  0  0  0
    7.5067   -3.3993   -2.7987 C   0  0  0  0  0  0  0  0  0  0  0  0
    8.3270   -4.4523   -3.1132 N   0  0  0  0  0  0  0  0  0  0  0  0
    8.6704   -4.9813   -1.9593 C   0  0  0  0  0  0  0  0  0  0  0  0
    9.5155   -6.0969   -1.6545 C   0  0  0  0  0  0  0  0  0  0  0  0
    9.7273   -6.4827   -0.3706 C   0  0  0  0  0  0  0  0  0  0  0  0
   10.6030   -7.6467   -0.0661 C   0  0  0  0  0  0  0  0  0  0  0  0
   11.4266   -7.6448    1.0559 C   0  0  0  0  0  0  0  0  0  0  0  0
   12.1720   -8.7804    1.3638 C   0  0  0  0  0  0  0  0  0  0  0  0
   12.0955   -9.8677    0.5204 C   0  0  0  0  0  0  0  0  0  0  0  0
   12.8997  -10.9491    0.8303 O   0  0  0  0  0  0  0  0  0  0  0  0
   13.1073  -11.8793   -0.2470 C   0  0  3  0  0  0  0  0  0  0  0  0
   13.8756  -13.0979    0.3007 C   0  0  0  0  0  0  0  0  0  0  0  0
   15.3668  -12.8306    0.5324 C   0  0  0  0  0  0  0  0  0  0  0  0
   16.0393  -12.0787   -0.6145 C   0  0  0  0  0  0  0  0  0  0  0  0
   15.2831  -10.9042   -1.0347 N   0  0  0  0  0  0  0  0  0  0  0  0
   13.9088  -11.2624   -1.4138 C   0  0  0  0  0  0  0  0  0  0  0  0
   11.2876   -9.8656   -0.5613 N   0  0  0  0  0  0  0  0  0  0  0  0
   10.5375   -8.7381   -0.8617 N   0  0  0  0  0  0  0  0  0  0  0  0
    9.0346   -5.7612    0.7060 C   0  0  0  0  0  0  0  0  0  0  0  0
    8.2209   -4.7346    0.4228 C   0  0  0  0  0  0  0  0  0  0  0  0
    8.0648   -4.3121   -0.8955 N   0  0  0  0  0  0  0  0  0  0  0  0
    7.0529   -1.7397    0.5704 C   0  0  0  0  0  0  0  0  0  0  0  0
    7.9640    0.2222    4.5894 H   0  0  0  0  0  0  0  0  0  0  0  0
    6.9832    1.0991    6.6225 H   0  0  0  0  0  0  0  0  0  0  0  0
    5.5646    1.6007    5.7026 H   0  0  0  0  0  0  0  0  0  0  0  0
    7.5744   -1.0241    2.9366 H   0  0  0  0  0  0  0  0  0  0  0  0
    4.6143    0.5410    1.2378 H   0  0  0  0  0  0  0  0  0  0  0  0
    3.8778   -0.1874   -0.9707 H   0  0  0  0  0  0  0  0  0  0  0  0
    5.0826   -1.9471   -2.1950 H   0  0  0  0  0  0  0  0  0  0  0  0
    7.0825   -2.7818   -3.5817 H   0  0  0  0  0  0  0  0  0  0  0  0
    9.9772   -6.6093   -2.4940 H   0  0  0  0  0  0  0  0  0  0  0  0
   11.5021   -6.7723    1.6959 H   0  0  0  0  0  0  0  0  0  0  0  0
   12.8157   -8.8065    2.2350 H   0  0  0  0  0  0  0  0  0  0  0  0
   12.1319  -12.2417   -0.5968 H   0  0  0  0  0  0  0  0  0  0  0  0
   13.7823  -13.9225   -0.4170 H   0  0  0  0  0  0  0  0  0  0  0  0
   13.4328  -13.4370    1.2451 H   0  0  0  0  0  0  0  0  0  0  0  0
   15.8821  -13.7905    0.6708 H   0  0  0  0  0  0  0  0  0  0  0  0
   15.4984  -12.2702    1.4653 H   0  0  0  0  0  0  0  0  0  0  0  0
   16.1958  -12.7480   -1.4688 H   0  0  0  0  0  0  0  0  0  0  0  0
   17.0333  -11.7520   -0.2864 H   0  0  0  0  0  0  0  0  0  0  0  0
   15.7435  -10.4749   -1.8369 H   0  0  0  0  0  0  0  0  0  0  0  0
   13.9284  -11.9665   -2.2547 H   0  0  0  0  0  0  0  0  0  0  0  0
   13.4282  -10.3515   -1.7797 H   0  0  0  0  0  0  0  0  0  0  0  0
    9.1650   -6.0851    1.7319 H   0  0  0  0  0  0  0  0  0  0  0  0
    7.6679   -4.2275    1.1996 H   0  0  0  0  0  0  0  0  0  0  0  0
    7.9876   -2.1067    0.9829 H   0  0  0  0  0  0  0  0  0  0  0  0
  1  2  2  0  0  0  0
  2  3  1  0  0  0  0
  2  9  1  0  0  0  0
  3  4  1  0  0  0  0
  3 38  1  0  0  0  0
  4  5  1  0  0  0  0
  4 39  1  0  0  0  0
  4 40  1  0  0  0  0
  5  6  1  0  0  0  0
  5  7  1  0  0  0  0
  5  8  1  0  0  0  0
  9 10  1  0  0  0  0
  9 41  1  0  0  0  0
 10 11  1  0  0  0  0
 10 37  2  0  0  0  0
 11 12  2  0  0  0  0
 11 42  1  0  0  0  0
 12 13  1  0  0  0  0
 12 43  1  0  0  0  0
 13 14  2  0  0  0  0
 13 44  1  0  0  0  0
 14 15  1  0  0  0  0
 14 37  1  0  0  0  0
 15 16  2  0  0  0  0
 15 36  1  0  0  0  0
 16 17  1  0  0  0  0
 16 45  1  0  0  0  0
 17 18  2  0  0  0  0
 18 19  1  0  0  0  0
 18 36  1  0  0  0  0
 19 20  2  0  0  0  0
 19 46  1  0  0  0  0
 20 21  1  0  0  0  0
 20 34  1  0  0  0  0
 21 22  1  0  0  0  0
 21 33  2  0  0  0  0
 22 23  2  0  0  0  0
 22 47  1  0  0  0  0
 23 24  1  0  0  0  0
 23 48  1  0  0  0  0
 24 25  1  0  0  0  0
 24 32  2  0  0  0  0
 25 26  1  0  0  0  0
 26 27  1  0  0  0  0
 26 31  1  0  0  0  0
 26 49  1  0  0  0  0
 27 28  1  0  0  0  0
 27 50  1  0  0  0  0
 27 51  1  0  0  0  0
 28 29  1  0  0  0  0
 28 52  1  0  0  0  0
 28 53  1  0  0  0  0
 29 30  1  0  0  0  0
 29 54  1  0  0  0  0
 29 55  1  0  0  0  0
 30 31  1  0  0  0  0
 30 56  1  0  0  0  0
 31 57  1  0  0  0  0
 31 58  1  0  0  0  0
 32 33  1  0  0  0  0
 34 35  2  0  0  0  0
 34 59  1  0  0  0  0
 35 36  1  0  0  0  0
 35 60  1  0  0  0  0
 37 61  1  0  0  0  0
M  END
$$$$
