CHEMBL88483
 OpenBabel04072215383D

 41 44  0  0  0  0  0  0  0  0999 V2000
    4.0829   -0.6797    0.7837 N   0  0  0  0  0  0  0  0  0  0  0  0
    2.8100    0.1004    0.0109 S   0  0  0  0  0  0  0  0  0  0  0  0
    1.6365   -0.7137    0.2272 O   0  0  0  0  0  0  0  0  0  0  0  0
    2.8947    1.4792    0.4231 O   0  0  0  0  0  0  0  0  0  0  0  0
    3.2843   -0.0298   -1.6907 C   0  0  0  0  0  0  0  0  0  0  0  0
    3.4410   -1.3186   -2.2412 C   0  0  0  0  0  0  0  0  0  0  0  0
    3.8465   -1.4638   -3.5644 C   0  0  0  0  0  0  0  0  0  0  0  0
    4.0725   -0.3081   -4.2866 C   0  0  0  0  0  0  0  0  0  0  0  0
    3.9208    0.9828   -3.7574 C   0  0  0  0  0  0  0  0  0  0  0  0
    3.5179    1.1386   -2.4426 C   0  0  0  0  0  0  0  0  0  0  0  0
    4.2695    1.9104   -4.8510 C   0  0  0  0  0  0  0  0  0  0  0  0
    4.3373    3.2520   -4.7915 C   0  0  0  0  0  0  0  0  0  0  0  0
    4.7727    4.0228   -5.8978 C   0  0  0  0  0  0  0  0  0  0  0  0
    6.0160    4.4722   -6.3068 C   0  0  0  0  0  0  0  0  0  0  0  0
    5.8638    5.0247   -7.6035 C   0  0  0  0  0  0  0  0  0  0  0  0
    4.5208    4.9666   -7.9119 C   0  0  0  0  0  0  0  0  0  0  0  0
    3.8588    4.3879   -6.8625 N   0  0  0  0  0  0  0  0  0  0  0  0
    3.8994    5.3891   -9.1957 C   0  0  0  0  0  0  0  0  0  0  0  0
    4.9826    5.4508  -10.2899 C   0  0  0  0  0  0  0  0  0  0  0  0
    6.2530    6.1743   -9.8021 C   0  0  0  0  0  0  0  0  0  0  0  0
    6.8945    5.4856   -8.5800 C   0  0  0  0  0  0  0  0  0  0  0  0
    4.5871    1.0504   -6.0597 C   0  0  0  0  0  0  0  0  0  0  0  0
    4.8525    1.3813   -7.1975 O   0  0  0  0  0  0  0  0  0  0  0  0
    4.4648   -0.2529   -5.6151 N   0  0  0  0  0  0  0  0  0  0  0  0
    3.7172   -1.3802    1.4306 H   0  0  0  0  0  0  0  0  0  0  0  0
    4.7006    0.0013    1.2256 H   0  0  0  0  0  0  0  0  0  0  0  0
    3.2531   -2.2028   -1.6349 H   0  0  0  0  0  0  0  0  0  0  0  0
    3.9797   -2.4451   -4.0054 H   0  0  0  0  0  0  0  0  0  0  0  0
    3.3898    2.1223   -2.0010 H   0  0  0  0  0  0  0  0  0  0  0  0
    4.1198    3.7821   -3.8691 H   0  0  0  0  0  0  0  0  0  0  0  0
    6.9470    4.3216   -5.7769 H   0  0  0  0  0  0  0  0  0  0  0  0
    2.8725    4.1680   -6.8457 H   0  0  0  0  0  0  0  0  0  0  0  0
    3.4511    6.3815   -9.0694 H   0  0  0  0  0  0  0  0  0  0  0  0
    3.1054    4.6985   -9.4987 H   0  0  0  0  0  0  0  0  0  0  0  0
    4.5810    5.9568  -11.1754 H   0  0  0  0  0  0  0  0  0  0  0  0
    5.2504    4.4317  -10.5987 H   0  0  0  0  0  0  0  0  0  0  0  0
    5.9922    7.2077   -9.5412 H   0  0  0  0  0  0  0  0  0  0  0  0
    6.9860    6.2273  -10.6158 H   0  0  0  0  0  0  0  0  0  0  0  0
    7.6057    6.1671   -8.1014 H   0  0  0  0  0  0  0  0  0  0  0  0
    7.4600    4.6101   -8.9236 H   0  0  0  0  0  0  0  0  0  0  0  0
    4.6211   -1.0393   -6.2258 H   0  0  0  0  0  0  0  0  0  0  0  0
  1  2  1  0  0  0  0
  1 25  1  0  0  0  0
  1 26  1  0  0  0  0
  2  3  2  0  0  0  0
  2  4  2  0  0  0  0
  2  5  1  0  0  0  0
  5  6  1  0  0  0  0
  5 10  2  0  0  0  0
  6  7  2  0  0  0  0
  6 27  1  0  0  0  0
  7  8  1  0  0  0  0
  7 28  1  0  0  0  0
  8  9  2  0  0  0  0
  8 24  1  0  0  0  0
  9 10  1  0  0  0  0
  9 11  1  0  0  0  0
 10 29  1  0  0  0  0
 11 12  2  0  0  0  0
 11 22  1  0  0  0  0
 12 13  1  0  0  0  0
 12 30  1  0  0  0  0
 13 14  2  0  0  0  0
 13 17  1  0  0  0  0
 14 15  1  0  0  0  0
 14 31  1  0  0  0  0
 15 16  2  0  0  0  0
 15 21  1  0  0  0  0
 16 17  1  0  0  0  0
 16 18  1  0  0  0  0
 17 32  1  0  0  0  0
 18 19  1  0  0  0  0
 18 33  1  0  0  0  0
 18 34  1  0  0  0  0
 19 20  1  0  0  0  0
 19 35  1  0  0  0  0
 19 36  1  0  0  0  0
 20 21  1  0  0  0  0
 20 37  1  0  0  0  0
 20 38  1  0  0  0  0
 21 39  1  0  0  0  0
 21 40  1  0  0  0  0
 22 23  2  0  0  0  0
 22 24  1  0  0  0  0
 24 41  1  0  0  0  0
M  END
$$$$
