CHEMBL178789
 OpenBabel04072215363D

 39 41  0  0  0  0  0  0  0  0999 V2000
    1.2211    0.6399   -2.5242 C   0  0  0  0  0  0  0  0  0  0  0  0
    2.6357    0.5330   -2.3872 O   0  0  0  0  0  0  0  0  0  0  0  0
    3.0518   -0.1819   -1.3027 C   0  0  0  0  0  0  0  0  0  0  0  0
    2.3015   -0.7026   -0.4892 O   0  0  0  0  0  0  0  0  0  0  0  0
    4.5097   -0.2480   -1.2161 C   0  0  0  0  0  0  0  0  0  0  0  0
    5.3848    0.3550   -2.0959 C   0  0  0  0  0  0  0  0  0  0  0  0
    6.6590    0.1014   -1.6990 N   0  0  0  0  0  0  0  0  0  0  0  0
    7.7476    0.5589   -2.3278 N   0  0  0  0  0  0  0  0  0  0  0  0
    8.8582    0.1944   -1.7786 C   0  0  0  0  0  0  0  0  0  0  0  0
    8.9977   -0.5947   -0.6738 N   0  0  0  0  0  0  0  0  0  0  0  0
    7.9479   -1.0548   -0.0510 C   0  0  0  0  0  0  0  0  0  0  0  0
    8.1081   -1.8380    1.0705 N   0  0  0  0  0  0  0  0  0  0  0  0
    9.1568   -2.7511    1.2983 C   0  0  0  0  0  0  0  0  0  0  0  0
    9.8877   -3.3323    0.2606 C   0  0  0  0  0  0  0  0  0  0  0  0
   10.9131   -4.2427    0.5290 C   0  0  0  0  0  0  0  0  0  0  0  0
   11.2353   -4.5885    1.8471 C   0  0  0  0  0  0  0  0  0  0  0  0
   12.3483   -5.5610    2.0944 C   0  0  0  0  0  0  0  0  0  0  0  0
   10.4957   -4.0087    2.8831 C   0  0  0  0  0  0  0  0  0  0  0  0
   10.7232   -4.2851    4.2024 O   0  0  0  0  0  0  0  0  0  0  0  0
    9.4685   -3.1039    2.6154 C   0  0  0  0  0  0  0  0  0  0  0  0
    6.6541   -0.6835   -0.5756 C   0  0  0  0  0  0  0  0  0  0  0  0
    5.3232   -0.9329   -0.2300 C   0  0  0  0  0  0  0  0  0  0  0  0
    4.7407   -1.7295    0.8864 C   0  0  0  0  0  0  0  0  0  0  0  0
    1.0112    1.0942   -3.4957 H   0  0  0  0  0  0  0  0  0  0  0  0
    0.8159    1.2881   -1.7412 H   0  0  0  0  0  0  0  0  0  0  0  0
    0.7481   -0.3474   -2.4973 H   0  0  0  0  0  0  0  0  0  0  0  0
    5.2038    0.9548   -2.9765 H   0  0  0  0  0  0  0  0  0  0  0  0
    9.7989    0.5422   -2.2382 H   0  0  0  0  0  0  0  0  0  0  0  0
    7.2758   -2.1376    1.5460 H   0  0  0  0  0  0  0  0  0  0  0  0
    9.6549   -3.1025   -0.7760 H   0  0  0  0  0  0  0  0  0  0  0  0
   11.4544   -4.6744   -0.3077 H   0  0  0  0  0  0  0  0  0  0  0  0
   12.8194   -5.8788    1.1589 H   0  0  0  0  0  0  0  0  0  0  0  0
   11.9625   -6.4555    2.5934 H   0  0  0  0  0  0  0  0  0  0  0  0
   13.1237   -5.0997    2.7137 H   0  0  0  0  0  0  0  0  0  0  0  0
   11.4360   -4.9383    4.2741 H   0  0  0  0  0  0  0  0  0  0  0  0
    8.9262   -2.6617    3.4473 H   0  0  0  0  0  0  0  0  0  0  0  0
    5.4707   -2.2212    1.5214 H   0  0  0  0  0  0  0  0  0  0  0  0
    4.0953   -2.5201    0.4877 H   0  0  0  0  0  0  0  0  0  0  0  0
    4.1393   -1.0830    1.5346 H   0  0  0  0  0  0  0  0  0  0  0  0
  1  2  1  0  0  0  0
  1 24  1  0  0  0  0
  1 25  1  0  0  0  0
  1 26  1  0  0  0  0
  2  3  1  0  0  0  0
  3  4  2  0  0  0  0
  3  5  1  0  0  0  0
  5  6  2  0  0  0  0
  5 22  1  0  0  0  0
  6  7  1  0  0  0  0
  6 27  1  0  0  0  0
  7  8  1  0  0  0  0
  7 21  1  0  0  0  0
  8  9  2  0  0  0  0
  9 10  1  0  0  0  0
  9 28  1  0  0  0  0
 10 11  2  0  0  0  0
 11 12  1  0  0  0  0
 11 21  1  0  0  0  0
 12 13  1  0  0  0  0
 12 29  1  0  0  0  0
 13 14  1  0  0  0  0
 13 20  2  0  0  0  0
 14 15  2  0  0  0  0
 14 30  1  0  0  0  0
 15 16  1  0  0  0  0
 15 31  1  0  0  0  0
 16 17  1  0  0  0  0
 16 18  2  0  0  0  0
 17 32  1  0  0  0  0
 17 33  1  0  0  0  0
 17 34  1  0  0  0  0
 18 19  1  0  0  0  0
 18 20  1  0  0  0  0
 19 35  1  0  0  0  0
 20 36  1  0  0  0  0
 21 22  2  0  0  0  0
 22 23  1  0  0  0  0
 23 37  1  0  0  0  0
 23 38  1  0  0  0  0
 23 39  1  0  0  0  0
M  END
$$$$
