CHEMBL1945172
 OpenBabel04072215363D

 54 57  0  0  0  0  0  0  0  0999 V2000
    2.7471   -0.0754    1.6551 C   0  0  0  0  0  0  0  0  0  0  0  0
    4.1962   -0.0798    1.8496 N   0  0  0  0  0  0  0  0  0  0  0  0
    4.6241    1.1679    2.4865 C   0  0  0  0  0  0  0  0  0  0  0  0
    4.6408   -1.2297    2.6518 C   0  0  0  0  0  0  0  0  0  0  0  0
    4.4041   -2.5903    1.9713 C   0  0  0  0  0  0  0  0  0  0  0  0
    5.0108   -2.7037    0.5690 C   0  0  0  0  0  0  0  0  0  0  0  0
    6.5166   -2.6940    0.6098 C   0  0  0  0  0  0  0  0  0  0  0  0
    7.2473   -1.5216    0.4050 C   0  0  0  0  0  0  0  0  0  0  0  0
    8.6309   -1.5294    0.5649 C   0  0  0  0  0  0  0  0  0  0  0  0
    9.2768   -2.7038    0.9644 C   0  0  0  0  0  0  0  0  0  0  0  0
   10.9981   -2.6512    1.1645 Cl  0  0  0  0  0  0  0  0  0  0  0  0
    8.5613   -3.8966    1.2073 C   0  0  0  0  0  0  0  0  0  0  0  0
    9.1988   -5.0145    1.7691 N   0  0  0  0  0  0  0  0  0  0  0  0
    8.7936   -6.3223    2.0377 C   0  0  0  0  0  0  0  0  0  0  0  0
    9.8227   -7.1556    2.2617 N   0  0  0  0  0  0  0  0  0  0  0  0
    9.6006   -8.4628    2.0851 C   0  0  0  0  0  0  0  0  0  0  0  0
    8.3790   -8.9389    1.6875 C   0  0  0  0  0  0  0  0  0  0  0  0
    7.3242   -8.0625    1.7500 C   0  0  0  0  0  0  0  0  0  0  0  0
    7.5180   -6.7393    1.9291 N   0  0  0  0  0  0  0  0  0  0  0  0
    5.9681   -8.5456    1.4219 C   0  0  0  0  0  0  0  0  0  0  0  0
    4.9852   -8.7091    2.4137 C   0  0  0  0  0  0  0  0  0  0  0  0
    3.7324   -9.2479    2.0918 C   0  0  0  0  0  0  0  0  0  0  0  0
    3.4191   -9.5364    0.7640 C   0  0  0  0  0  0  0  0  0  0  0  0
    1.8830  -10.2075    0.3725 Cl  0  0  0  0  0  0  0  0  0  0  0  0
    4.3685   -9.3702   -0.2384 C   0  0  0  0  0  0  0  0  0  0  0  0
    5.6653   -8.9911    0.1157 C   0  0  0  0  0  0  0  0  0  0  0  0
    6.6756   -9.2053   -0.8469 N   0  0  0  0  0  0  0  0  0  0  0  0
    7.9099   -9.7539   -0.5713 C   0  0  0  0  0  0  0  0  0  0  0  0
    9.0147   -9.9466   -1.8125 S   0  0  0  0  0  0  0  0  0  0  0  0
    8.2336  -10.1896    0.8701 C   0  0  0  0  0  0  0  0  0  0  0  0
    7.1841   -3.8688    0.9858 C   0  0  0  0  0  0  0  0  0  0  0  0
    2.4422    0.7992    1.0698 H   0  0  0  0  0  0  0  0  0  0  0  0
    2.2032   -0.0630    2.6053 H   0  0  0  0  0  0  0  0  0  0  0  0
    2.4217   -0.9474    1.0782 H   0  0  0  0  0  0  0  0  0  0  0  0
    4.3045    2.0323    1.8938 H   0  0  0  0  0  0  0  0  0  0  0  0
    5.7177    1.2161    2.5416 H   0  0  0  0  0  0  0  0  0  0  0  0
    4.2200    1.2742    3.4997 H   0  0  0  0  0  0  0  0  0  0  0  0
    4.1420   -1.2336    3.6314 H   0  0  0  0  0  0  0  0  0  0  0  0
    5.7153   -1.1374    2.8641 H   0  0  0  0  0  0  0  0  0  0  0  0
    3.3287   -2.7906    1.9134 H   0  0  0  0  0  0  0  0  0  0  0  0
    4.8156   -3.3715    2.6231 H   0  0  0  0  0  0  0  0  0  0  0  0
    4.6396   -1.9203   -0.1017 H   0  0  0  0  0  0  0  0  0  0  0  0
    4.6818   -3.6517    0.1177 H   0  0  0  0  0  0  0  0  0  0  0  0
    6.7354   -0.5934    0.1570 H   0  0  0  0  0  0  0  0  0  0  0  0
    9.1934   -0.6116    0.4139 H   0  0  0  0  0  0  0  0  0  0  0  0
   10.2116   -4.9932    1.7175 H   0  0  0  0  0  0  0  0  0  0  0  0
   10.4736   -9.1000    2.1718 H   0  0  0  0  0  0  0  0  0  0  0  0
    5.2115   -8.4782    3.4532 H   0  0  0  0  0  0  0  0  0  0  0  0
    3.0130   -9.4568    2.8809 H   0  0  0  0  0  0  0  0  0  0  0  0
    4.1316   -9.6546   -1.2600 H   0  0  0  0  0  0  0  0  0  0  0  0
    6.4319   -9.1408   -1.8316 H   0  0  0  0  0  0  0  0  0  0  0  0
    9.1500  -10.7882    0.9112 H   0  0  0  0  0  0  0  0  0  0  0  0
    7.4310  -10.8277    1.2594 H   0  0  0  0  0  0  0  0  0  0  0  0
    6.5877   -4.7615    1.1433 H   0  0  0  0  0  0  0  0  0  0  0  0
  1  2  1  0  0  0  0
  1 32  1  0  0  0  0
  1 33  1  0  0  0  0
  1 34  1  0  0  0  0
  2  3  1  0  0  0  0
  2  4  1  0  0  0  0
  3 35  1  0  0  0  0
  3 36  1  0  0  0  0
  3 37  1  0  0  0  0
  4  5  1  0  0  0  0
  4 38  1  0  0  0  0
  4 39  1  0  0  0  0
  5  6  1  0  0  0  0
  5 40  1  0  0  0  0
  5 41  1  0  0  0  0
  6  7  1  0  0  0  0
  6 42  1  0  0  0  0
  6 43  1  0  0  0  0
  7  8  1  0  0  0  0
  7 31  2  0  0  0  0
  8  9  2  0  0  0  0
  8 44  1  0  0  0  0
  9 10  1  0  0  0  0
  9 45  1  0  0  0  0
 10 11  1  0  0  0  0
 10 12  2  0  0  0  0
 12 13  1  0  0  0  0
 12 31  1  0  0  0  0
 13 14  1  0  0  0  0
 13 46  1  0  0  0  0
 14 15  1  0  0  0  0
 14 19  2  0  0  0  0
 15 16  2  0  0  0  0
 16 17  1  0  0  0  0
 16 47  1  0  0  0  0
 17 18  2  0  0  0  0
 17 30  1  0  0  0  0
 18 19  1  0  0  0  0
 18 20  1  0  0  0  0
 20 21  1  0  0  0  0
 20 26  2  0  0  0  0
 21 22  2  0  0  0  0
 21 48  1  0  0  0  0
 22 23  1  0  0  0  0
 22 49  1  0  0  0  0
 23 24  1  0  0  0  0
 23 25  2  0  0  0  0
 25 26  1  0  0  0  0
 25 50  1  0  0  0  0
 26 27  1  0  0  0  0
 27 28  1  0  0  0  0
 27 51  1  0  0  0  0
 28 29  2  0  0  0  0
 28 30  1  0  0  0  0
 30 52  1  0  0  0  0
 30 53  1  0  0  0  0
 31 54  1  0  0  0  0
M  END
$$$$
