CHEMBL3923013
 OpenBabel04072215373D

 59 62  0  0  1  0  0  0  0  0999 V2000
    2.7971   -4.1335    5.6302 C   0  0  0  0  0  0  0  0  0  0  0  0
    4.2105   -4.1542    5.5097 O   0  0  0  0  0  0  0  0  0  0  0  0
    4.6957   -3.0885    4.6952 C   0  0  0  0  0  0  0  0  0  0  0  0
    6.2272   -3.1979    4.5524 C   0  0  0  0  0  0  0  0  0  0  0  0
    6.7103   -4.3725    3.8083 N   0  0  0  0  0  0  0  0  0  0  0  0
    8.1815   -4.4812    3.8111 C   0  0  0  0  0  0  0  0  0  0  0  0
    8.8789   -3.5461    2.8093 C   0  0  0  0  0  0  0  0  0  0  0  0
    8.3886   -3.7020    1.4765 O   0  0  0  0  0  0  0  0  0  0  0  0
    6.9593   -3.5769    1.3818 C   0  0  3  0  0  0  0  0  0  0  0  0
    6.4870   -2.0886    1.4167 C   0  0  0  0  0  0  0  0  0  0  0  0
    6.7574   -1.3053    0.2185 O   0  0  0  0  0  0  0  0  0  0  0  0
    6.1195   -1.6632   -0.9361 C   0  0  0  0  0  0  0  0  0  0  0  0
    5.1598   -2.6961   -0.9408 C   0  0  0  0  0  0  0  0  0  0  0  0
    4.7729   -3.3442   -2.0927 C   0  0  0  0  0  0  0  0  0  0  0  0
    4.0533   -4.4624   -1.9760 N   0  0  0  0  0  0  0  0  0  0  0  0
    3.7837   -5.1081   -3.1109 C   0  0  0  0  0  0  0  0  0  0  0  0
    4.1358   -4.7128   -4.3355 N   0  0  0  0  0  0  0  0  0  0  0  0
    4.8367   -3.5676   -4.4362 C   0  0  0  0  0  0  0  0  0  0  0  0
    5.2406   -3.0928   -5.7126 N   0  0  0  0  0  0  0  0  0  0  0  0
    4.8126   -3.5565   -6.9685 C   0  0  0  0  0  0  0  0  0  0  0  0
    3.5647   -4.1541   -7.1542 C   0  0  0  0  0  0  0  0  0  0  0  0
    3.1715   -4.6163   -8.4105 C   0  0  0  0  0  0  0  0  0  0  0  0
    4.0106   -4.4434   -9.5083 C   0  0  0  0  0  0  0  0  0  0  0  0
    3.4826   -5.0756  -11.0267 Cl  0  0  0  0  0  0  0  0  0  0  0  0
    5.2268   -3.7732   -9.3541 C   0  0  0  0  0  0  0  0  0  0  0  0
    6.2963   -3.4741  -10.6754 Cl  0  0  0  0  0  0  0  0  0  0  0  0
    5.6188   -3.3232   -8.0907 C   0  0  0  0  0  0  0  0  0  0  0  0
    5.2041   -2.8286   -3.3070 C   0  0  0  0  0  0  0  0  0  0  0  0
    5.9753   -1.6505   -3.3251 C   0  0  0  0  0  0  0  0  0  0  0  0
    6.4763   -1.0785   -2.1545 C   0  0  0  0  0  0  0  0  0  0  0  0
    7.2890   -0.0353   -2.4730 O   0  0  0  0  0  0  0  0  0  0  0  0
    7.9513    0.7441   -1.5014 C   0  0  0  0  0  0  0  0  0  0  0  0
    6.2454   -4.4893    2.4188 C   0  0  0  0  0  0  0  0  0  0  0  0
    2.4966   -4.9704    6.2659 H   0  0  0  0  0  0  0  0  0  0  0  0
    2.3270   -4.2532    4.6495 H   0  0  0  0  0  0  0  0  0  0  0  0
    2.4658   -3.2014    6.0973 H   0  0  0  0  0  0  0  0  0  0  0  0
    4.4542   -2.1350    5.1799 H   0  0  0  0  0  0  0  0  0  0  0  0
    4.1967   -3.0969    3.7203 H   0  0  0  0  0  0  0  0  0  0  0  0
    6.6370   -3.2540    5.5689 H   0  0  0  0  0  0  0  0  0  0  0  0
    6.6036   -2.2694    4.1196 H   0  0  0  0  0  0  0  0  0  0  0  0
    8.4311   -5.5177    3.5474 H   0  0  0  0  0  0  0  0  0  0  0  0
    8.5840   -4.3210    4.8177 H   0  0  0  0  0  0  0  0  0  0  0  0
    9.9469   -3.7821    2.7790 H   0  0  0  0  0  0  0  0  0  0  0  0
    8.7878   -2.4983    3.1071 H   0  0  0  0  0  0  0  0  0  0  0  0
    6.7388   -4.0171    0.4071 H   0  0  0  0  0  0  0  0  0  0  0  0
    7.0139   -1.5522    2.2072 H   0  0  0  0  0  0  0  0  0  0  0  0
    5.4190   -2.0064    1.6567 H   0  0  0  0  0  0  0  0  0  0  0  0
    4.7603   -3.1144   -0.0264 H   0  0  0  0  0  0  0  0  0  0  0  0
    3.2354   -6.0402   -3.0327 H   0  0  0  0  0  0  0  0  0  0  0  0
    6.2366   -2.8949   -5.6947 H   0  0  0  0  0  0  0  0  0  0  0  0
    2.8762   -4.2805   -6.3226 H   0  0  0  0  0  0  0  0  0  0  0  0
    2.2136   -5.1180   -8.5131 H   0  0  0  0  0  0  0  0  0  0  0  0
    6.5614   -2.7945   -7.9809 H   0  0  0  0  0  0  0  0  0  0  0  0
    6.2484   -1.1900   -4.2724 H   0  0  0  0  0  0  0  0  0  0  0  0
    8.6378    1.3971   -2.0576 H   0  0  0  0  0  0  0  0  0  0  0  0
    8.5604    0.1401   -0.8285 H   0  0  0  0  0  0  0  0  0  0  0  0
    7.2523    1.3936   -0.9688 H   0  0  0  0  0  0  0  0  0  0  0  0
    6.4456   -5.5311    2.1253 H   0  0  0  0  0  0  0  0  0  0  0  0
    5.1566   -4.3995    2.3409 H   0  0  0  0  0  0  0  0  0  0  0  0
  1  2  1  0  0  0  0
  1 34  1  0  0  0  0
  1 35  1  0  0  0  0
  1 36  1  0  0  0  0
  2  3  1  0  0  0  0
  3  4  1  0  0  0  0
  3 37  1  0  0  0  0
  3 38  1  0  0  0  0
  4  5  1  0  0  0  0
  4 39  1  0  0  0  0
  4 40  1  0  0  0  0
  5  6  1  0  0  0  0
  5 33  1  0  0  0  0
  6  7  1  0  0  0  0
  6 41  1  0  0  0  0
  6 42  1  0  0  0  0
  7  8  1  0  0  0  0
  7 43  1  0  0  0  0
  7 44  1  0  0  0  0
  8  9  1  0  0  0  0
  9 10  1  0  0  0  0
  9 33  1  0  0  0  0
  9 45  1  0  0  0  0
 10 11  1  0  0  0  0
 10 46  1  0  0  0  0
 10 47  1  0  0  0  0
 11 12  1  0  0  0  0
 12 13  1  0  0  0  0
 12 30  2  0  0  0  0
 13 14  2  0  0  0  0
 13 48  1  0  0  0  0
 14 15  1  0  0  0  0
 14 28  1  0  0  0  0
 15 16  2  0  0  0  0
 16 17  1  0  0  0  0
 16 49  1  0  0  0  0
 17 18  2  0  0  0  0
 18 19  1  0  0  0  0
 18 28  1  0  0  0  0
 19 20  1  0  0  0  0
 19 50  1  0  0  0  0
 20 21  1  0  0  0  0
 20 27  2  0  0  0  0
 21 22  2  0  0  0  0
 21 51  1  0  0  0  0
 22 23  1  0  0  0  0
 22 52  1  0  0  0  0
 23 24  1  0  0  0  0
 23 25  2  0  0  0  0
 25 26  1  0  0  0  0
 25 27  1  0  0  0  0
 27 53  1  0  0  0  0
 28 29  2  0  0  0  0
 29 30  1  0  0  0  0
 29 54  1  0  0  0  0
 30 31  1  0  0  0  0
 31 32  1  0  0  0  0
 32 55  1  0  0  0  0
 32 56  1  0  0  0  0
 32 57  1  0  0  0  0
 33 58  1  0  0  0  0
 33 59  1  0  0  0  0
M  END
$$$$
