CHEMBL3288515
 OpenBabel04072215363D

 47 51  0  0  0  0  0  0  0  0999 V2000
   -3.4979    3.0076    1.4943 N   0  0  0  0  0  0  0  0  0  0  0  0
   -3.2520    1.6965    1.3416 C   0  0  0  0  0  0  0  0  0  0  0  0
   -4.1456    0.8093    1.7669 N   0  0  0  0  0  0  0  0  0  0  0  0
   -3.6177   -0.3648    1.4201 N   0  0  0  0  0  0  0  0  0  0  0  0
   -2.4112   -0.2764    0.7823 C   0  0  0  0  0  0  0  0  0  0  0  0
   -1.6029   -1.2910    0.2641 C   0  0  0  0  0  0  0  0  0  0  0  0
   -0.4038   -0.9109   -0.3204 C   0  0  0  0  0  0  0  0  0  0  0  0
   -0.0316    0.4303   -0.3606 C   0  0  0  0  0  0  0  0  0  0  0  0
   -0.8435    1.4757    0.1581 C   0  0  0  0  0  0  0  0  0  0  0  0
   -0.3708    2.8796    0.0907 C   0  0  0  0  0  0  0  0  0  0  0  0
    0.4251    3.3367   -0.9688 C   0  0  0  0  0  0  0  0  0  0  0  0
    0.8947    4.6573   -1.0262 C   0  0  0  0  0  0  0  0  0  0  0  0
    0.4859    5.6356   -0.0912 C   0  0  0  0  0  0  0  0  0  0  0  0
    0.8060    7.0263   -0.1272 C   0  0  0  0  0  0  0  0  0  0  0  0
    1.6623    7.6868   -1.1598 C   0  0  0  0  0  0  0  0  0  0  0  0
    2.4402    8.5538   -0.7745 O   0  0  0  0  0  0  0  0  0  0  0  0
    1.4745    7.2979   -2.4741 N   0  0  0  0  0  0  0  0  0  0  0  0
    2.1601    7.7929   -3.6086 C   0  0  0  0  0  0  0  0  0  0  0  0
    3.0317    8.8869   -3.5748 C   0  0  0  0  0  0  0  0  0  0  0  0
    3.6213    9.3447   -4.7501 C   0  0  0  0  0  0  0  0  0  0  0  0
    4.4233   10.4197   -4.7055 F   0  0  0  0  0  0  0  0  0  0  0  0
    3.3874    8.7276   -5.9654 C   0  0  0  0  0  0  0  0  0  0  0  0
    2.5512    7.6228   -5.9918 C   0  0  0  0  0  0  0  0  0  0  0  0
    2.3214    6.9972   -7.1536 F   0  0  0  0  0  0  0  0  0  0  0  0
    1.9355    7.1530   -4.8309 C   0  0  0  0  0  0  0  0  0  0  0  0
    0.3371    7.8917    0.8803 C   0  0  0  0  0  0  0  0  0  0  0  0
   -0.4453    7.4133    1.9224 C   0  0  0  0  0  0  0  0  0  0  0  0
   -0.7510    6.0598    1.9796 C   0  0  0  0  0  0  0  0  0  0  0  0
   -0.2971    5.1714    0.9933 C   0  0  0  0  0  0  0  0  0  0  0  0
   -0.6356    3.8111    1.1001 C   0  0  0  0  0  0  0  0  0  0  0  0
   -2.0961    1.0874    0.7365 C   0  0  0  0  0  0  0  0  0  0  0  0
   -4.4321    3.2323    1.8200 H   0  0  0  0  0  0  0  0  0  0  0  0
   -3.1547    3.6613    0.8010 H   0  0  0  0  0  0  0  0  0  0  0  0
   -4.1353   -1.2066    1.6427 H   0  0  0  0  0  0  0  0  0  0  0  0
   -1.8921   -2.3357    0.3162 H   0  0  0  0  0  0  0  0  0  0  0  0
    0.2588   -1.6661   -0.7371 H   0  0  0  0  0  0  0  0  0  0  0  0
    0.9384    0.6609   -0.7981 H   0  0  0  0  0  0  0  0  0  0  0  0
    0.7148    2.6654   -1.7754 H   0  0  0  0  0  0  0  0  0  0  0  0
    1.5890    4.8914   -1.8282 H   0  0  0  0  0  0  0  0  0  0  0  0
    0.7566    6.6081   -2.6552 H   0  0  0  0  0  0  0  0  0  0  0  0
    3.2529    9.4269   -2.6642 H   0  0  0  0  0  0  0  0  0  0  0  0
    3.8414    9.1038   -6.8742 H   0  0  0  0  0  0  0  0  0  0  0  0
    1.2939    6.2788   -4.9086 H   0  0  0  0  0  0  0  0  0  0  0  0
    0.5892    8.9512    0.8529 H   0  0  0  0  0  0  0  0  0  0  0  0
   -0.8081    8.0898    2.6919 H   0  0  0  0  0  0  0  0  0  0  0  0
   -1.3659    5.6994    2.8037 H   0  0  0  0  0  0  0  0  0  0  0  0
   -1.1402    3.4749    2.0056 H   0  0  0  0  0  0  0  0  0  0  0  0
  1  2  1  0  0  0  0
  1 32  1  0  0  0  0
  1 33  1  0  0  0  0
  2  3  2  0  0  0  0
  2 31  1  0  0  0  0
  3  4  1  0  0  0  0
  4  5  1  0  0  0  0
  4 34  1  0  0  0  0
  5  6  1  0  0  0  0
  5 31  2  0  0  0  0
  6  7  2  0  0  0  0
  6 35  1  0  0  0  0
  7  8  1  0  0  0  0
  7 36  1  0  0  0  0
  8  9  2  0  0  0  0
  8 37  1  0  0  0  0
  9 10  1  0  0  0  0
  9 31  1  0  0  0  0
 10 11  1  0  0  0  0
 10 30  2  0  0  0  0
 11 12  2  0  0  0  0
 11 38  1  0  0  0  0
 12 13  1  0  0  0  0
 12 39  1  0  0  0  0
 13 14  1  0  0  0  0
 13 29  2  0  0  0  0
 14 15  1  0  0  0  0
 14 26  2  0  0  0  0
 15 16  2  0  0  0  0
 15 17  1  0  0  0  0
 17 18  1  0  0  0  0
 17 40  1  0  0  0  0
 18 19  1  0  0  0  0
 18 25  2  0  0  0  0
 19 20  2  0  0  0  0
 19 41  1  0  0  0  0
 20 21  1  0  0  0  0
 20 22  1  0  0  0  0
 22 23  2  0  0  0  0
 22 42  1  0  0  0  0
 23 24  1  0  0  0  0
 23 25  1  0  0  0  0
 25 43  1  0  0  0  0
 26 27  1  0  0  0  0
 26 44  1  0  0  0  0
 27 28  2  0  0  0  0
 27 45  1  0  0  0  0
 28 29  1  0  0  0  0
 28 46  1  0  0  0  0
 29 30  1  0  0  0  0
 30 47  1  0  0  0  0
M  END
$$$$
