CHEMBL3950340
 OpenBabel04072215373D

 63 66  0  0  1  0  0  0  0  0999 V2000
   -0.3667    0.3911   -3.5098 C   0  0  0  0  0  0  0  0  0  0  0  0
    0.1656   -1.0491   -3.5466 C   0  0  3  0  0  0  0  0  0  0  0  0
    0.1966   -1.6203   -4.9755 C   0  0  0  0  0  0  0  0  0  0  0  0
    0.5958   -2.9247   -5.0787 N   0  0  0  0  0  0  0  0  0  0  0  0
   -0.1309   -1.0062   -5.9860 O   0  0  0  0  0  0  0  0  0  0  0  0
    1.5272   -1.1039   -2.8467 C   0  0  0  0  0  0  0  0  0  0  0  0
    2.6710   -0.7812   -3.6172 C   0  0  0  0  0  0  0  0  0  0  0  0
    3.9441   -0.7615   -3.0601 C   0  0  0  0  0  0  0  0  0  0  0  0
    4.1004   -1.0532   -1.7151 C   0  0  0  0  0  0  0  0  0  0  0  0
    2.9869   -1.3637   -0.9322 C   0  0  0  0  0  0  0  0  0  0  0  0
    1.6793   -1.3825   -1.4636 C   0  0  0  0  0  0  0  0  0  0  0  0
    0.4957   -1.7524   -0.5677 C   0  0  0  0  0  0  0  0  0  0  0  0
    0.6890   -1.4668    0.9364 C   0  0  0  0  0  0  0  0  0  0  0  0
   -0.4972   -1.7285    1.8308 C   0  0  0  0  0  0  0  0  0  0  0  0
   -1.0493   -0.6056    2.3536 N   0  0  0  0  0  0  0  0  0  0  0  0
   -2.0676   -0.7224    3.2170 C   0  0  0  0  0  0  0  0  0  0  0  0
   -2.6252    0.4707    3.6827 N   0  0  0  0  0  0  0  0  0  0  0  0
   -3.8802    0.6295    4.1456 C   0  0  0  0  0  0  0  0  0  0  0  0
   -4.7371   -0.2955    4.7688 C   0  0  0  0  0  0  0  0  0  0  0  0
   -5.9622    0.2000    4.9491 N   0  0  0  0  0  0  0  0  0  0  0  0
   -5.8815    1.4548    4.4584 N   0  0  0  0  0  0  0  0  0  0  0  0
   -7.1041    2.2425    4.2960 C   0  0  0  0  0  0  0  0  0  0  0  0
   -6.8896    3.7521    4.4729 C   0  0  0  0  0  0  0  0  0  0  0  0
   -6.6100    4.0975    5.9332 C   0  0  0  0  0  0  0  0  0  0  0  0
   -7.6804    3.6338    6.8161 N   0  0  0  0  0  0  0  0  0  0  0  0
   -7.9184    2.1916    6.6847 C   0  0  0  0  0  0  0  0  0  0  0  0
   -8.2343    1.8016    5.2417 C   0  0  0  0  0  0  0  0  0  0  0  0
   -4.6261    1.7714    4.0100 C   0  0  0  0  0  0  0  0  0  0  0  0
   -2.5765   -1.9020    3.5816 N   0  0  0  0  0  0  0  0  0  0  0  0
   -2.0226   -3.0001    3.0647 C   0  0  0  0  0  0  0  0  0  0  0  0
   -0.9533   -2.9900    2.1882 C   0  0  0  0  0  0  0  0  0  0  0  0
   -0.4088   -4.3090    1.7765 C   0  0  0  0  0  0  0  0  0  0  0  0
    0.7115   -4.2564    1.0138 F   0  0  0  0  0  0  0  0  0  0  0  0
   -0.0912   -5.0907    2.8429 F   0  0  0  0  0  0  0  0  0  0  0  0
   -1.3160   -5.0278    1.0535 F   0  0  0  0  0  0  0  0  0  0  0  0
   -0.9085    0.6745   -4.4171 H   0  0  0  0  0  0  0  0  0  0  0  0
    0.4308    1.1292   -3.3610 H   0  0  0  0  0  0  0  0  0  0  0  0
   -1.0624    0.5084   -2.6715 H   0  0  0  0  0  0  0  0  0  0  0  0
   -0.5497   -1.6961   -3.0230 H   0  0  0  0  0  0  0  0  0  0  0  0
    1.1523   -3.3506   -4.3483 H   0  0  0  0  0  0  0  0  0  0  0  0
    0.7312   -3.2675   -6.0214 H   0  0  0  0  0  0  0  0  0  0  0  0
    2.5755   -0.5276   -4.6732 H   0  0  0  0  0  0  0  0  0  0  0  0
    4.8060   -0.5129   -3.6738 H   0  0  0  0  0  0  0  0  0  0  0  0
    5.0909   -1.0287   -1.2671 H   0  0  0  0  0  0  0  0  0  0  0  0
    3.1782   -1.5837    0.1136 H   0  0  0  0  0  0  0  0  0  0  0  0
    0.2869   -2.8155   -0.7299 H   0  0  0  0  0  0  0  0  0  0  0  0
   -0.3945   -1.2024   -0.8924 H   0  0  0  0  0  0  0  0  0  0  0  0
    0.9473   -0.4018    1.0337 H   0  0  0  0  0  0  0  0  0  0  0  0
    1.5383   -2.0157    1.3539 H   0  0  0  0  0  0  0  0  0  0  0  0
   -2.1398    1.2312    3.2234 H   0  0  0  0  0  0  0  0  0  0  0  0
   -4.5385   -1.3151    5.0706 H   0  0  0  0  0  0  0  0  0  0  0  0
   -7.4154    2.0459    3.2610 H   0  0  0  0  0  0  0  0  0  0  0  0
   -7.7949    4.2793    4.1431 H   0  0  0  0  0  0  0  0  0  0  0  0
   -6.0788    4.1262    3.8390 H   0  0  0  0  0  0  0  0  0  0  0  0
   -6.5232    5.1848    6.0330 H   0  0  0  0  0  0  0  0  0  0  0  0
   -5.6492    3.6804    6.2558 H   0  0  0  0  0  0  0  0  0  0  0  0
   -8.5403    4.1366    6.6071 H   0  0  0  0  0  0  0  0  0  0  0  0
   -8.7674    1.9212    7.3219 H   0  0  0  0  0  0  0  0  0  0  0  0
   -7.0567    1.6364    7.0684 H   0  0  0  0  0  0  0  0  0  0  0  0
   -9.1700    2.2838    4.9296 H   0  0  0  0  0  0  0  0  0  0  0  0
   -8.4168    0.7224    5.1789 H   0  0  0  0  0  0  0  0  0  0  0  0
   -4.3904    2.7289    3.5722 H   0  0  0  0  0  0  0  0  0  0  0  0
   -2.4705   -3.9331    3.4069 H   0  0  0  0  0  0  0  0  0  0  0  0
  1  2  1  0  0  0  0
  1 36  1  0  0  0  0
  1 37  1  0  0  0  0
  1 38  1  0  0  0  0
  2  3  1  0  0  0  0
  2  6  1  0  0  0  0
  2 39  1  0  0  0  0
  3  4  1  0  0  0  0
  3  5  2  0  0  0  0
  4 40  1  0  0  0  0
  4 41  1  0  0  0  0
  6  7  1  0  0  0  0
  6 11  2  0  0  0  0
  7  8  2  0  0  0  0
  7 42  1  0  0  0  0
  8  9  1  0  0  0  0
  8 43  1  0  0  0  0
  9 10  2  0  0  0  0
  9 44  1  0  0  0  0
 10 11  1  0  0  0  0
 10 45  1  0  0  0  0
 11 12  1  0  0  0  0
 12 13  1  0  0  0  0
 12 46  1  0  0  0  0
 12 47  1  0  0  0  0
 13 14  1  0  0  0  0
 13 48  1  0  0  0  0
 13 49  1  0  0  0  0
 14 15  1  0  0  0  0
 14 31  2  0  0  0  0
 15 16  2  0  0  0  0
 16 17  1  0  0  0  0
 16 29  1  0  0  0  0
 17 18  1  0  0  0  0
 17 50  1  0  0  0  0
 18 19  1  0  0  0  0
 18 28  2  0  0  0  0
 19 20  2  0  0  0  0
 19 51  1  0  0  0  0
 20 21  1  0  0  0  0
 21 22  1  0  0  0  0
 21 28  1  0  0  0  0
 22 23  1  0  0  0  0
 22 27  1  0  0  0  0
 22 52  1  0  0  0  0
 23 24  1  0  0  0  0
 23 53  1  0  0  0  0
 23 54  1  0  0  0  0
 24 25  1  0  0  0  0
 24 55  1  0  0  0  0
 24 56  1  0  0  0  0
 25 26  1  0  0  0  0
 25 57  1  0  0  0  0
 26 27  1  0  0  0  0
 26 58  1  0  0  0  0
 26 59  1  0  0  0  0
 27 60  1  0  0  0  0
 27 61  1  0  0  0  0
 28 62  1  0  0  0  0
 29 30  2  0  0  0  0
 30 31  1  0  0  0  0
 30 63  1  0  0  0  0
 31 32  1  0  0  0  0
 32 33  1  0  0  0  0
 32 34  1  0  0  0  0
 32 35  1  0  0  0  0
M  END
$$$$
