CHEMBL1762524
 OpenBabel04072215363D

 63 67  0  0  0  0  0  0  0  0999 V2000
    2.4615   -3.6432    3.3767 C   0  0  0  0  0  0  0  0  0  0  0  0
    3.1524   -2.8053    2.3917 N   0  0  0  0  0  0  0  0  0  0  0  0
    3.6028   -1.5302    2.8053 C   0  0  0  0  0  0  0  0  0  0  0  0
    3.9978   -1.2525    4.1269 C   0  0  0  0  0  0  0  0  0  0  0  0
    4.3812    0.0336    4.5268 C   0  0  0  0  0  0  0  0  0  0  0  0
    4.3940    1.0740    3.6044 C   0  0  0  0  0  0  0  0  0  0  0  0
    4.0362    0.8184    2.2857 C   0  0  0  0  0  0  0  0  0  0  0  0
    4.0527    2.0994    1.1355 Cl  0  0  0  0  0  0  0  0  0  0  0  0
    3.6500   -0.4636    1.8897 C   0  0  0  0  0  0  0  0  0  0  0  0
    3.3552   -3.3762    1.1070 C   0  0  0  0  0  0  0  0  0  0  0  0
    2.4723   -4.3120    0.5932 C   0  0  0  0  0  0  0  0  0  0  0  0
    2.7428   -4.8141   -0.6527 C   0  0  0  0  0  0  0  0  0  0  0  0
    3.8178   -4.4648   -1.3609 N   0  0  0  0  0  0  0  0  0  0  0  0
    4.6431   -3.5594   -0.8175 C   0  0  0  0  0  0  0  0  0  0  0  0
    5.7807   -3.1636   -1.5274 N   0  0  0  0  0  0  0  0  0  0  0  0
    6.5540   -3.9604   -2.3981 C   0  0  0  0  0  0  0  0  0  0  0  0
    7.3198   -3.3465   -3.3938 C   0  0  0  0  0  0  0  0  0  0  0  0
    8.0435   -4.0981   -4.3269 C   0  0  0  0  0  0  0  0  0  0  0  0
    8.7852   -3.5165   -5.3311 N   0  0  0  0  0  0  0  0  0  0  0  0
    9.5280   -2.2661   -5.1452 C   0  0  0  0  0  0  0  0  0  0  0  0
    9.0228   -1.2061   -6.1302 C   0  0  0  0  0  0  0  0  0  0  0  0
    9.0761   -1.6805   -7.4879 O   0  0  0  0  0  0  0  0  0  0  0  0
    8.2556   -2.8533   -7.6372 C   0  0  0  0  0  0  0  0  0  0  0  0
    8.7181   -3.9977   -6.7181 C   0  0  0  0  0  0  0  0  0  0  0  0
    8.0032   -5.4973   -4.2015 C   0  0  0  0  0  0  0  0  0  0  0  0
    7.3243   -6.1660   -3.1722 C   0  0  0  0  0  0  0  0  0  0  0  0
    7.4029   -7.5364   -3.0273 N   0  0  0  0  0  0  0  0  0  0  0  0
    6.3632   -8.3495   -2.3815 C   0  0  0  0  0  0  0  0  0  0  0  0
    6.9896   -9.1815   -1.2538 C   0  0  0  0  0  0  0  0  0  0  0  0
    8.0598  -10.0060   -1.7492 O   0  0  0  0  0  0  0  0  0  0  0  0
    9.0927   -9.1852   -2.3193 C   0  0  0  0  0  0  0  0  0  0  0  0
    8.5730   -8.3097   -3.4738 C   0  0  0  0  0  0  0  0  0  0  0  0
    6.5909   -5.3606   -2.2942 C   0  0  0  0  0  0  0  0  0  0  0  0
    4.4288   -2.9879    0.3786 N   0  0  0  0  0  0  0  0  0  0  0  0
    2.3559   -3.1847    4.3644 H   0  0  0  0  0  0  0  0  0  0  0  0
    2.9897   -4.5941    3.5149 H   0  0  0  0  0  0  0  0  0  0  0  0
    1.4316   -3.8485    3.0643 H   0  0  0  0  0  0  0  0  0  0  0  0
    4.0417   -2.0399    4.8744 H   0  0  0  0  0  0  0  0  0  0  0  0
    4.6729    0.2166    5.5579 H   0  0  0  0  0  0  0  0  0  0  0  0
    4.6872    2.0727    3.9148 H   0  0  0  0  0  0  0  0  0  0  0  0
    3.3584   -0.6258    0.8550 H   0  0  0  0  0  0  0  0  0  0  0  0
    1.5779   -4.6326    1.1043 H   0  0  0  0  0  0  0  0  0  0  0  0
    2.0830   -5.5307   -1.1313 H   0  0  0  0  0  0  0  0  0  0  0  0
    6.3105   -2.5073   -0.9720 H   0  0  0  0  0  0  0  0  0  0  0  0
    7.2879   -2.2642   -3.4814 H   0  0  0  0  0  0  0  0  0  0  0  0
   10.5840   -2.4775   -5.3565 H   0  0  0  0  0  0  0  0  0  0  0  0
    9.4815   -1.8916   -4.1177 H   0  0  0  0  0  0  0  0  0  0  0  0
    9.6539   -0.3141   -6.0665 H   0  0  0  0  0  0  0  0  0  0  0  0
    7.9938   -0.9089   -5.8963 H   0  0  0  0  0  0  0  0  0  0  0  0
    8.3172   -3.1696   -8.6834 H   0  0  0  0  0  0  0  0  0  0  0  0
    7.2129   -2.5834   -7.4306 H   0  0  0  0  0  0  0  0  0  0  0  0
    9.7200   -4.3265   -7.0174 H   0  0  0  0  0  0  0  0  0  0  0  0
    8.0351   -4.8459   -6.8417 H   0  0  0  0  0  0  0  0  0  0  0  0
    8.5479   -6.0831   -4.9356 H   0  0  0  0  0  0  0  0  0  0  0  0
    5.9533   -9.0273   -3.1404 H   0  0  0  0  0  0  0  0  0  0  0  0
    5.5210   -7.7686   -1.9957 H   0  0  0  0  0  0  0  0  0  0  0  0
    6.2374   -9.8468   -0.8191 H   0  0  0  0  0  0  0  0  0  0  0  0
    7.3744   -8.5388   -0.4527 H   0  0  0  0  0  0  0  0  0  0  0  0
    9.8794   -9.8507   -2.6889 H   0  0  0  0  0  0  0  0  0  0  0  0
    9.5281   -8.5647   -1.5266 H   0  0  0  0  0  0  0  0  0  0  0  0
    8.2667   -8.9436   -4.3138 H   0  0  0  0  0  0  0  0  0  0  0  0
    9.4042   -7.6810   -3.8087 H   0  0  0  0  0  0  0  0  0  0  0  0
    6.0595   -5.8192   -1.4674 H   0  0  0  0  0  0  0  0  0  0  0  0
  1  2  1  0  0  0  0
  1 35  1  0  0  0  0
  1 36  1  0  0  0  0
  1 37  1  0  0  0  0
  2  3  1  0  0  0  0
  2 10  1  0  0  0  0
  3  4  1  0  0  0  0
  3  9  2  0  0  0  0
  4  5  2  0  0  0  0
  4 38  1  0  0  0  0
  5  6  1  0  0  0  0
  5 39  1  0  0  0  0
  6  7  2  0  0  0  0
  6 40  1  0  0  0  0
  7  8  1  0  0  0  0
  7  9  1  0  0  0  0
  9 41  1  0  0  0  0
 10 11  1  0  0  0  0
 10 34  2  0  0  0  0
 11 12  2  0  0  0  0
 11 42  1  0  0  0  0
 12 13  1  0  0  0  0
 12 43  1  0  0  0  0
 13 14  2  0  0  0  0
 14 15  1  0  0  0  0
 14 34  1  0  0  0  0
 15 16  1  0  0  0  0
 15 44  1  0  0  0  0
 16 17  1  0  0  0  0
 16 33  2  0  0  0  0
 17 18  2  0  0  0  0
 17 45  1  0  0  0  0
 18 19  1  0  0  0  0
 18 25  1  0  0  0  0
 19 20  1  0  0  0  0
 19 24  1  0  0  0  0
 20 21  1  0  0  0  0
 20 46  1  0  0  0  0
 20 47  1  0  0  0  0
 21 22  1  0  0  0  0
 21 48  1  0  0  0  0
 21 49  1  0  0  0  0
 22 23  1  0  0  0  0
 23 24  1  0  0  0  0
 23 50  1  0  0  0  0
 23 51  1  0  0  0  0
 24 52  1  0  0  0  0
 24 53  1  0  0  0  0
 25 26  2  0  0  0  0
 25 54  1  0  0  0  0
 26 27  1  0  0  0  0
 26 33  1  0  0  0  0
 27 28  1  0  0  0  0
 27 32  1  0  0  0  0
 28 29  1  0  0  0  0
 28 55  1  0  0  0  0
 28 56  1  0  0  0  0
 29 30  1  0  0  0  0
 29 57  1  0  0  0  0
 29 58  1  0  0  0  0
 30 31  1  0  0  0  0
 31 32  1  0  0  0  0
 31 59  1  0  0  0  0
 31 60  1  0  0  0  0
 32 61  1  0  0  0  0
 32 62  1  0  0  0  0
 33 63  1  0  0  0  0
M  END
$$$$
