CHEMBL403706
 OpenBabel04072215373D

 53 56  0  0  0  0  0  0  0  0999 V2000
    2.5011    0.2777    0.0276 C   0  0  0  0  0  0  0  0  0  0  0  0
    1.0107    0.0723    0.0303 C   0  0  0  0  0  0  0  0  0  0  0  0
    0.2102    1.2324   -0.0289 C   0  0  0  0  0  0  0  0  0  0  0  0
   -1.1786    1.1542   -0.0372 C   0  0  0  0  0  0  0  0  0  0  0  0
   -1.7953   -0.0907   -0.0197 C   0  0  0  0  0  0  0  0  0  0  0  0
   -3.2825   -0.1649   -0.0454 C   0  0  0  0  0  0  0  0  0  0  0  0
   -3.9491    0.8098    0.4907 N   0  0  0  0  0  0  0  0  0  0  0  0
   -5.3634    0.7934    0.4523 C   0  0  0  0  0  0  0  0  0  0  0  0
   -6.0403    1.9874    0.1687 C   0  0  0  0  0  0  0  0  0  0  0  0
   -5.3162    3.1283   -0.2137 N   0  0  0  0  0  0  0  0  0  0  0  0
   -7.3758    2.1074    0.1688 N   0  0  0  0  0  0  0  0  0  0  0  0
   -8.0491    0.9957    0.4784 C   0  0  0  0  0  0  0  0  0  0  0  0
   -7.5254   -0.2066    0.7716 N   0  0  0  0  0  0  0  0  0  0  0  0
   -6.1784   -0.3037    0.7479 C   0  0  0  0  0  0  0  0  0  0  0  0
   -5.7031   -1.5585    1.0927 N   0  0  0  0  0  0  0  0  0  0  0  0
   -4.6552   -2.2084    0.3089 C   0  0  0  0  0  0  0  0  0  0  0  0
   -3.9545   -1.3421   -0.7253 C   0  0  0  0  0  0  0  0  0  0  0  0
   -1.0166   -1.2436    0.0479 C   0  0  0  0  0  0  0  0  0  0  0  0
    0.3883   -1.1950    0.0832 C   0  0  0  0  0  0  0  0  0  0  0  0
    1.1580   -2.3907    0.1857 N   0  0  0  0  0  0  0  0  0  0  0  0
    0.6579   -3.6634    0.4547 C   0  0  0  0  0  0  0  0  0  0  0  0
   -0.5262   -3.9481    0.6011 O   0  0  0  0  0  0  0  0  0  0  0  0
    1.6670   -4.6070    0.6120 N   0  0  0  0  0  0  0  0  0  0  0  0
    1.3535   -5.9505    0.9521 C   0  0  0  0  0  0  0  0  0  0  0  0
    2.0617   -6.5565    1.9908 C   0  0  0  0  0  0  0  0  0  0  0  0
    1.7285   -7.8464    2.4111 C   0  0  0  0  0  0  0  0  0  0  0  0
    0.7262   -8.5634    1.7576 C   0  0  0  0  0  0  0  0  0  0  0  0
    0.0382   -7.9950    0.6763 C   0  0  0  0  0  0  0  0  0  0  0  0
   -1.0083   -8.7861   -0.0713 C   0  0  0  0  0  0  0  0  0  0  0  0
   -1.1608  -10.0593    0.3963 F   0  0  0  0  0  0  0  0  0  0  0  0
   -2.2464   -8.2237   -0.0170 F   0  0  0  0  0  0  0  0  0  0  0  0
   -0.7133   -8.9186   -1.3954 F   0  0  0  0  0  0  0  0  0  0  0  0
    0.3481   -6.6750    0.2938 C   0  0  0  0  0  0  0  0  0  0  0  0
    2.7542    1.3295    0.2149 H   0  0  0  0  0  0  0  0  0  0  0  0
    2.9186    0.0078   -0.9468 H   0  0  0  0  0  0  0  0  0  0  0  0
    2.9821   -0.3036    0.8185 H   0  0  0  0  0  0  0  0  0  0  0  0
    0.6672    2.2222   -0.0563 H   0  0  0  0  0  0  0  0  0  0  0  0
   -1.7731    2.0637   -0.0679 H   0  0  0  0  0  0  0  0  0  0  0  0
   -4.4946    3.2187    0.3777 H   0  0  0  0  0  0  0  0  0  0  0  0
   -5.9386    3.9268   -0.2138 H   0  0  0  0  0  0  0  0  0  0  0  0
   -9.1318    1.0714    0.4956 H   0  0  0  0  0  0  0  0  0  0  0  0
   -6.5187   -2.1507    1.2364 H   0  0  0  0  0  0  0  0  0  0  0  0
   -5.1013   -3.0666   -0.2087 H   0  0  0  0  0  0  0  0  0  0  0  0
   -3.9234   -2.6194    1.0138 H   0  0  0  0  0  0  0  0  0  0  0  0
   -4.6592   -0.9651   -1.4762 H   0  0  0  0  0  0  0  0  0  0  0  0
   -3.2306   -1.9433   -1.2836 H   0  0  0  0  0  0  0  0  0  0  0  0
   -1.5349   -2.1908    0.0742 H   0  0  0  0  0  0  0  0  0  0  0  0
    2.1558   -2.3026    0.0688 H   0  0  0  0  0  0  0  0  0  0  0  0
    2.5194   -4.2423    1.0100 H   0  0  0  0  0  0  0  0  0  0  0  0
    2.8313   -6.0130    2.5308 H   0  0  0  0  0  0  0  0  0  0  0  0
    2.2421   -8.2892    3.2612 H   0  0  0  0  0  0  0  0  0  0  0  0
    0.4836   -9.5699    2.0979 H   0  0  0  0  0  0  0  0  0  0  0  0
   -0.1973   -6.2189   -0.5322 H   0  0  0  0  0  0  0  0  0  0  0  0
  1  2  1  0  0  0  0
  1 34  1  0  0  0  0
  1 35  1  0  0  0  0
  1 36  1  0  0  0  0
  2  3  1  0  0  0  0
  2 19  2  0  0  0  0
  3  4  2  0  0  0  0
  3 37  1  0  0  0  0
  4  5  1  0  0  0  0
  4 38  1  0  0  0  0
  5  6  1  0  0  0  0
  5 18  2  0  0  0  0
  6  7  2  0  0  0  0
  6 17  1  0  0  0  0
  7  8  1  0  0  0  0
  8  9  1  0  0  0  0
  8 14  2  0  0  0  0
  9 10  1  0  0  0  0
  9 11  2  0  0  0  0
 10 39  1  0  0  0  0
 10 40  1  0  0  0  0
 11 12  1  0  0  0  0
 12 13  2  0  0  0  0
 12 41  1  0  0  0  0
 13 14  1  0  0  0  0
 14 15  1  0  0  0  0
 15 16  1  0  0  0  0
 15 42  1  0  0  0  0
 16 17  1  0  0  0  0
 16 43  1  0  0  0  0
 16 44  1  0  0  0  0
 17 45  1  0  0  0  0
 17 46  1  0  0  0  0
 18 19  1  0  0  0  0
 18 47  1  0  0  0  0
 19 20  1  0  0  0  0
 20 21  1  0  0  0  0
 20 48  1  0  0  0  0
 21 22  2  0  0  0  0
 21 23  1  0  0  0  0
 23 24  1  0  0  0  0
 23 49  1  0  0  0  0
 24 25  1  0  0  0  0
 24 33  2  0  0  0  0
 25 26  2  0  0  0  0
 25 50  1  0  0  0  0
 26 27  1  0  0  0  0
 26 51  1  0  0  0  0
 27 28  2  0  0  0  0
 27 52  1  0  0  0  0
 28 29  1  0  0  0  0
 28 33  1  0  0  0  0
 29 30  1  0  0  0  0
 29 31  1  0  0  0  0
 29 32  1  0  0  0  0
 33 53  1  0  0  0  0
M  END
$$$$
