CHEMBL403606
 OpenBabel04072215373D

 63 68  0  0  0  0  0  0  0  0999 V2000
    6.8386   -0.3893   -0.8725 C   0  0  0  0  0  0  0  0  0  0  0  0
    5.5795   -0.1354   -0.0462 C   0  0  0  0  0  0  0  0  0  0  0  0
    5.7931    1.0192    0.9432 C   0  0  0  0  0  0  0  0  0  0  0  0
    4.5879    1.2930    1.8586 C   0  0  0  0  0  0  0  0  0  0  0  0
    4.7549    2.5137    2.6563 N   0  0  0  0  0  0  0  0  0  0  0  0
    4.3946    3.8001    2.1862 C   0  0  0  0  0  0  0  0  0  0  0  0
    3.7617    4.2336    1.0046 C   0  0  0  0  0  0  0  0  0  0  0  0
    3.5904    5.6191    0.7932 C   0  0  0  0  0  0  0  0  0  0  0  0
    4.0000    6.5730    1.7126 C   0  0  0  0  0  0  0  0  0  0  0  0
    3.8460    8.0650    1.5574 C   0  0  0  0  0  0  0  0  0  0  0  0
    3.1182    8.6296    0.3537 C   0  0  0  0  0  0  0  0  0  0  0  0
    4.3408    8.8688    2.4688 N   0  0  0  0  0  0  0  0  0  0  0  0
    4.1158   10.2191    2.1479 O   0  0  0  0  0  0  0  0  0  0  0  0
    4.6212   11.0486    3.1879 C   0  0  0  0  0  0  0  0  0  0  0  0
    4.6417    6.1266    2.8772 C   0  0  0  0  0  0  0  0  0  0  0  0
    4.8804    4.7512    3.0921 C   0  0  0  0  0  0  0  0  0  0  0  0
    5.6285    3.9819    3.9540 C   0  0  0  0  0  0  0  0  0  0  0  0
    6.6389    4.5326    4.7573 C   0  0  0  0  0  0  0  0  0  0  0  0
    7.6274    3.6311    5.1872 C   0  0  0  0  0  0  0  0  0  0  0  0
    7.5814    2.2523    4.9491 C   0  0  0  0  0  0  0  0  0  0  0  0
    6.2607    1.7644    4.6706 C   0  0  0  0  0  0  0  0  0  0  0  0
    5.5035    2.6227    3.8368 C   0  0  0  0  0  0  0  0  0  0  0  0
    5.6655    0.9416    5.8890 C   0  0  0  0  0  0  0  0  0  0  0  0
    6.5186    1.0520    7.2274 C   0  0  0  0  0  0  0  0  0  0  0  0
    7.9280    0.7526    6.8558 C   0  0  0  0  0  0  0  0  0  0  0  0
    8.6823   -0.2656    7.2689 N   0  0  0  0  0  0  0  0  0  0  0  0
    9.6401   -0.3298    6.3084 N   0  0  0  0  0  0  0  0  0  0  0  0
   10.5591   -1.4426    6.2886 C   0  0  0  0  0  0  0  0  0  0  0  0
    9.4564    0.5704    5.2865 C   0  0  0  0  0  0  0  0  0  0  0  0
    8.4345    1.3794    5.7088 C   0  0  0  0  0  0  0  0  0  0  0  0
    8.5554    4.3713    6.0083 C   0  0  0  0  0  0  0  0  0  0  0  0
    9.5436    4.0600    6.6588 O   0  0  0  0  0  0  0  0  0  0  0  0
    8.0560    5.6700    6.0051 N   0  0  0  0  0  0  0  0  0  0  0  0
    6.8884    5.9034    5.1885 C   0  0  0  0  0  0  0  0  0  0  0  0
    6.6689   -1.1818   -1.6092 H   0  0  0  0  0  0  0  0  0  0  0  0
    7.6706   -0.6998   -0.2317 H   0  0  0  0  0  0  0  0  0  0  0  0
    7.1446    0.5121   -1.4142 H   0  0  0  0  0  0  0  0  0  0  0  0
    5.3124   -1.0548    0.4870 H   0  0  0  0  0  0  0  0  0  0  0  0
    4.7522    0.0978   -0.7273 H   0  0  0  0  0  0  0  0  0  0  0  0
    6.0330    1.9235    0.3697 H   0  0  0  0  0  0  0  0  0  0  0  0
    6.6702    0.8005    1.5632 H   0  0  0  0  0  0  0  0  0  0  0  0
    4.4112    0.4604    2.5480 H   0  0  0  0  0  0  0  0  0  0  0  0
    3.6758    1.4155    1.2612 H   0  0  0  0  0  0  0  0  0  0  0  0
    3.4453    3.5298    0.2396 H   0  0  0  0  0  0  0  0  0  0  0  0
    3.1444    5.9170   -0.1564 H   0  0  0  0  0  0  0  0  0  0  0  0
    2.6836    7.8762   -0.2994 H   0  0  0  0  0  0  0  0  0  0  0  0
    3.8201    9.2343   -0.2336 H   0  0  0  0  0  0  0  0  0  0  0  0
    2.3023    9.2765    0.7004 H   0  0  0  0  0  0  0  0  0  0  0  0
    4.4451   12.0913    2.9057 H   0  0  0  0  0  0  0  0  0  0  0  0
    5.6980   10.8997    3.3136 H   0  0  0  0  0  0  0  0  0  0  0  0
    4.0971   10.8513    4.1287 H   0  0  0  0  0  0  0  0  0  0  0  0
    4.9907    6.8472    3.6101 H   0  0  0  0  0  0  0  0  0  0  0  0
    5.6213   -0.1137    5.5989 H   0  0  0  0  0  0  0  0  0  0  0  0
    4.6510    1.2939    6.1079 H   0  0  0  0  0  0  0  0  0  0  0  0
    6.1509    0.3933    8.0182 H   0  0  0  0  0  0  0  0  0  0  0  0
    6.4709    2.0831    7.6136 H   0  0  0  0  0  0  0  0  0  0  0  0
   10.5568   -1.9351    7.2639 H   0  0  0  0  0  0  0  0  0  0  0  0
   11.5588   -1.0668    6.0595 H   0  0  0  0  0  0  0  0  0  0  0  0
   10.2260   -2.1401    5.5150 H   0  0  0  0  0  0  0  0  0  0  0  0
   10.0057    0.5026    4.3579 H   0  0  0  0  0  0  0  0  0  0  0  0
    8.4927    6.3717    6.5837 H   0  0  0  0  0  0  0  0  0  0  0  0
    7.1645    6.5604    4.3631 H   0  0  0  0  0  0  0  0  0  0  0  0
    6.0780    6.3072    5.7989 H   0  0  0  0  0  0  0  0  0  0  0  0
  1  2  1  0  0  0  0
  1 35  1  0  0  0  0
  1 36  1  0  0  0  0
  1 37  1  0  0  0  0
  2  3  1  0  0  0  0
  2 38  1  0  0  0  0
  2 39  1  0  0  0  0
  3  4  1  0  0  0  0
  3 40  1  0  0  0  0
  3 41  1  0  0  0  0
  4  5  1  0  0  0  0
  4 42  1  0  0  0  0
  4 43  1  0  0  0  0
  5  6  1  0  0  0  0
  5 22  1  0  0  0  0
  6  7  1  0  0  0  0
  6 16  2  0  0  0  0
  7  8  2  0  0  0  0
  7 44  1  0  0  0  0
  8  9  1  0  0  0  0
  8 45  1  0  0  0  0
  9 10  1  0  0  0  0
  9 15  2  0  0  0  0
 10 11  1  0  0  0  0
 10 12  2  0  0  0  0
 11 46  1  0  0  0  0
 11 47  1  0  0  0  0
 11 48  1  0  0  0  0
 12 13  1  0  0  0  0
 13 14  1  0  0  0  0
 14 49  1  0  0  0  0
 14 50  1  0  0  0  0
 14 51  1  0  0  0  0
 15 16  1  0  0  0  0
 15 52  1  0  0  0  0
 16 17  1  0  0  0  0
 17 18  1  0  0  0  0
 17 22  2  0  0  0  0
 18 19  2  0  0  0  0
 18 34  1  0  0  0  0
 19 20  1  0  0  0  0
 19 31  1  0  0  0  0
 20 21  2  0  0  0  0
 20 30  1  0  0  0  0
 21 22  1  0  0  0  0
 21 23  1  0  0  0  0
 23 24  1  0  0  0  0
 23 53  1  0  0  0  0
 23 54  1  0  0  0  0
 24 25  1  0  0  0  0
 24 55  1  0  0  0  0
 24 56  1  0  0  0  0
 25 26  2  0  0  0  0
 25 30  1  0  0  0  0
 26 27  1  0  0  0  0
 27 28  1  0  0  0  0
 27 29  1  0  0  0  0
 28 57  1  0  0  0  0
 28 58  1  0  0  0  0
 28 59  1  0  0  0  0
 29 30  2  0  0  0  0
 29 60  1  0  0  0  0
 31 32  2  0  0  0  0
 31 33  1  0  0  0  0
 33 34  1  0  0  0  0
 33 61  1  0  0  0  0
 34 62  1  0  0  0  0
 34 63  1  0  0  0  0
M  END
$$$$
