CHEMBL3923206
 OpenBabel04072215373D

 54 57  0  0  0  0  0  0  0  0999 V2000
    2.4781   -0.2103   -0.0319 C   0  0  0  0  0  0  0  0  0  0  0  0
    0.9861   -0.0668    0.0343 C   0  0  0  0  0  0  0  0  0  0  0  0
    0.4003    1.2045   -0.0089 C   0  0  0  0  0  0  0  0  0  0  0  0
   -0.9879    1.3687    0.0547 C   0  0  0  0  0  0  0  0  0  0  0  0
   -1.5971    2.6451   -0.0060 N   0  0  0  0  0  0  0  0  0  0  0  0
   -1.0093    3.7748   -0.5562 C   0  0  0  0  0  0  0  0  0  0  0  0
    0.0318    3.7877   -1.2044 O   0  0  0  0  0  0  0  0  0  0  0  0
   -1.7290    4.9216   -0.2463 N   0  0  0  0  0  0  0  0  0  0  0  0
   -1.3107    6.1901   -0.7092 C   0  0  0  0  0  0  0  0  0  0  0  0
   -1.2618    7.2511    0.1957 C   0  0  0  0  0  0  0  0  0  0  0  0
   -0.7952    8.4980   -0.2230 C   0  0  0  0  0  0  0  0  0  0  0  0
   -0.4364    8.6985   -1.5544 C   0  0  0  0  0  0  0  0  0  0  0  0
   -0.0057    9.9137   -1.9165 F   0  0  0  0  0  0  0  0  0  0  0  0
   -0.5239    7.6707   -2.4878 C   0  0  0  0  0  0  0  0  0  0  0  0
   -0.1918    7.9007   -3.9318 C   0  0  0  0  0  0  0  0  0  0  0  0
    0.1355    9.1835   -4.2499 F   0  0  0  0  0  0  0  0  0  0  0  0
    0.8526    7.1380   -4.3590 F   0  0  0  0  0  0  0  0  0  0  0  0
   -1.2370    7.5831   -4.7506 F   0  0  0  0  0  0  0  0  0  0  0  0
   -0.9466    6.4021   -2.0468 C   0  0  0  0  0  0  0  0  0  0  0  0
   -1.7963    0.2373    0.2178 C   0  0  0  0  0  0  0  0  0  0  0  0
   -1.2276   -1.0446    0.2185 C   0  0  0  0  0  0  0  0  0  0  0  0
   -1.9422   -2.2107    0.4066 O   0  0  0  0  0  0  0  0  0  0  0  0
   -3.1837   -2.3582   -0.2051 C   0  0  0  0  0  0  0  0  0  0  0  0
   -4.0112   -3.3329    0.3204 C   0  0  0  0  0  0  0  0  0  0  0  0
   -5.2489   -3.4532   -0.2734 C   0  0  0  0  0  0  0  0  0  0  0  0
   -6.1534   -4.4144    0.2249 N   0  0  0  0  0  0  0  0  0  0  0  0
   -7.4671   -4.5051   -0.1858 C   0  0  0  0  0  0  0  0  0  0  0  0
   -8.0737   -3.7328   -0.9119 O   0  0  0  0  0  0  0  0  0  0  0  0
   -8.2021   -5.6727    0.4032 C   0  0  0  0  0  0  0  0  0  0  0  0
   -9.5766   -6.0248   -0.1290 C   0  0  0  0  0  0  0  0  0  0  0  0
   -9.4367   -5.4354    1.2431 C   0  0  0  0  0  0  0  0  0  0  0  0
   -5.6037   -2.6968   -1.3177 N   0  0  0  0  0  0  0  0  0  0  0  0
   -4.7148   -1.8104   -1.7746 C   0  0  0  0  0  0  0  0  0  0  0  0
   -3.5019   -1.5992   -1.2659 N   0  0  0  0  0  0  0  0  0  0  0  0
    0.1609   -1.1917    0.1331 C   0  0  0  0  0  0  0  0  0  0  0  0
    2.9741    0.7670   -0.0290 H   0  0  0  0  0  0  0  0  0  0  0  0
    2.7702   -0.7319   -0.9482 H   0  0  0  0  0  0  0  0  0  0  0  0
    2.8433   -0.7658    0.8375 H   0  0  0  0  0  0  0  0  0  0  0  0
    1.0545    2.0697   -0.0755 H   0  0  0  0  0  0  0  0  0  0  0  0
   -2.6022    2.6780    0.0884 H   0  0  0  0  0  0  0  0  0  0  0  0
   -2.1493    4.8918    0.6723 H   0  0  0  0  0  0  0  0  0  0  0  0
   -1.5219    7.1084    1.2405 H   0  0  0  0  0  0  0  0  0  0  0  0
   -0.7003    9.3180    0.4828 H   0  0  0  0  0  0  0  0  0  0  0  0
   -1.0033    5.5822   -2.7628 H   0  0  0  0  0  0  0  0  0  0  0  0
   -2.8718    0.3480    0.3136 H   0  0  0  0  0  0  0  0  0  0  0  0
   -3.6977   -3.9347    1.1599 H   0  0  0  0  0  0  0  0  0  0  0  0
   -5.8227   -5.0483    0.9331 H   0  0  0  0  0  0  0  0  0  0  0  0
   -7.5800   -6.5189    0.6791 H   0  0  0  0  0  0  0  0  0  0  0  0
   -9.8429   -7.0717   -0.2153 H   0  0  0  0  0  0  0  0  0  0  0  0
  -10.0072   -5.4000   -0.9062 H   0  0  0  0  0  0  0  0  0  0  0  0
   -9.6241   -6.0870    2.0880 H   0  0  0  0  0  0  0  0  0  0  0  0
   -9.7757   -4.4141    1.3843 H   0  0  0  0  0  0  0  0  0  0  0  0
   -5.0149   -1.2107   -2.6260 H   0  0  0  0  0  0  0  0  0  0  0  0
    0.6002   -2.1863    0.1503 H   0  0  0  0  0  0  0  0  0  0  0  0
  1  2  1  0  0  0  0
  1 36  1  0  0  0  0
  1 37  1  0  0  0  0
  1 38  1  0  0  0  0
  2  3  1  0  0  0  0
  2 35  2  0  0  0  0
  3  4  2  0  0  0  0
  3 39  1  0  0  0  0
  4  5  1  0  0  0  0
  4 20  1  0  0  0  0
  5  6  1  0  0  0  0
  5 40  1  0  0  0  0
  6  7  2  0  0  0  0
  6  8  1  0  0  0  0
  8  9  1  0  0  0  0
  8 41  1  0  0  0  0
  9 10  1  0  0  0  0
  9 19  2  0  0  0  0
 10 11  2  0  0  0  0
 10 42  1  0  0  0  0
 11 12  1  0  0  0  0
 11 43  1  0  0  0  0
 12 13  1  0  0  0  0
 12 14  2  0  0  0  0
 14 15  1  0  0  0  0
 14 19  1  0  0  0  0
 15 16  1  0  0  0  0
 15 17  1  0  0  0  0
 15 18  1  0  0  0  0
 19 44  1  0  0  0  0
 20 21  2  0  0  0  0
 20 45  1  0  0  0  0
 21 22  1  0  0  0  0
 21 35  1  0  0  0  0
 22 23  1  0  0  0  0
 23 24  1  0  0  0  0
 23 34  2  0  0  0  0
 24 25  2  0  0  0  0
 24 46  1  0  0  0  0
 25 26  1  0  0  0  0
 25 32  1  0  0  0  0
 26 27  1  0  0  0  0
 26 47  1  0  0  0  0
 27 28  2  0  0  0  0
 27 29  1  0  0  0  0
 29 30  1  0  0  0  0
 29 31  1  0  0  0  0
 29 48  1  0  0  0  0
 30 31  1  0  0  0  0
 30 49  1  0  0  0  0
 30 50  1  0  0  0  0
 31 51  1  0  0  0  0
 31 52  1  0  0  0  0
 32 33  2  0  0  0  0
 33 34  1  0  0  0  0
 33 53  1  0  0  0  0
 35 54  1  0  0  0  0
M  END
$$$$
