CHEMBL2086737
 OpenBabel04072215363D

 44 48  0  0  0  0  0  0  0  0999 V2000
   -3.1324    0.7756   -0.0909 O   0  0  0  0  0  0  0  0  0  0  0  0
   -1.9498    0.4795   -0.1522 C   0  0  0  0  0  0  0  0  0  0  0  0
   -0.8993    1.3748   -0.0831 N   0  0  0  0  0  0  0  0  0  0  0  0
    0.3294    0.7304   -0.0889 C   0  0  0  0  0  0  0  0  0  0  0  0
    1.5701    1.3458   -0.0116 C   0  0  0  0  0  0  0  0  0  0  0  0
    2.7133    0.5354   -0.0451 C   0  0  0  0  0  0  0  0  0  0  0  0
    4.0366    1.2095    0.0864 C   0  0  0  0  0  0  0  0  0  0  0  0
    4.1634    2.2818    0.6515 O   0  0  0  0  0  0  0  0  0  0  0  0
    5.0725    0.5676   -0.4935 O   0  0  0  0  0  0  0  0  0  0  0  0
    2.5691   -0.8624   -0.1392 C   0  0  0  0  0  0  0  0  0  0  0  0
    1.2903   -1.4559   -0.2109 C   0  0  0  0  0  0  0  0  0  0  0  0
    0.1552   -0.6566   -0.1762 C   0  0  0  0  0  0  0  0  0  0  0  0
   -1.3215   -0.9045   -0.2110 C   0  0  0  0  0  0  0  0  0  0  0  0
   -2.0325   -2.0619   -0.2019 C   0  0  0  0  0  0  0  0  0  0  0  0
   -1.3216   -3.3548   -0.0250 C   0  0  0  0  0  0  0  0  0  0  0  0
   -1.0450   -3.8276    1.2695 C   0  0  0  0  0  0  0  0  0  0  0  0
   -0.4423   -5.0716    1.4544 C   0  0  0  0  0  0  0  0  0  0  0  0
   -0.1089   -5.8514    0.3501 C   0  0  0  0  0  0  0  0  0  0  0  0
   -0.3738   -5.3858   -0.9383 C   0  0  0  0  0  0  0  0  0  0  0  0
   -0.9768   -4.1400   -1.1292 C   0  0  0  0  0  0  0  0  0  0  0  0
   -3.4710   -2.0695   -0.1981 C   0  0  0  0  0  0  0  0  0  0  0  0
   -4.3872   -2.1594   -1.1519 N   0  0  0  0  0  0  0  0  0  0  0  0
   -5.6158   -2.1394   -0.4988 C   0  0  0  0  0  0  0  0  0  0  0  0
   -6.9359   -2.1372   -0.9879 C   0  0  0  0  0  0  0  0  0  0  0  0
   -8.0003   -2.0034   -0.0739 C   0  0  0  0  0  0  0  0  0  0  0  0
   -7.7638   -1.9178    1.3002 C   0  0  0  0  0  0  0  0  0  0  0  0
   -6.4660   -2.0000    1.8066 C   0  0  0  0  0  0  0  0  0  0  0  0
   -5.4308   -2.0984    0.8761 C   0  0  0  0  0  0  0  0  0  0  0  0
   -4.0749   -2.1625    1.0335 N   0  0  0  0  0  0  0  0  0  0  0  0
   -1.0415    2.3723   -0.0082 H   0  0  0  0  0  0  0  0  0  0  0  0
    1.6612    2.4241    0.0827 H   0  0  0  0  0  0  0  0  0  0  0  0
    4.8584   -0.2075   -1.0412 H   0  0  0  0  0  0  0  0  0  0  0  0
    3.4374   -1.5186   -0.1200 H   0  0  0  0  0  0  0  0  0  0  0  0
    1.2272   -2.5356   -0.2795 H   0  0  0  0  0  0  0  0  0  0  0  0
   -1.3105   -3.2399    2.1448 H   0  0  0  0  0  0  0  0  0  0  0  0
   -0.2469   -5.4398    2.4591 H   0  0  0  0  0  0  0  0  0  0  0  0
    0.3424   -6.8303    0.4917 H   0  0  0  0  0  0  0  0  0  0  0  0
   -0.1230   -6.0009   -1.7993 H   0  0  0  0  0  0  0  0  0  0  0  0
   -1.1932   -3.7929   -2.1376 H   0  0  0  0  0  0  0  0  0  0  0  0
   -7.1349   -2.2034   -2.0524 H   0  0  0  0  0  0  0  0  0  0  0  0
   -9.0229   -1.9448   -0.4419 H   0  0  0  0  0  0  0  0  0  0  0  0
   -8.5969   -1.7747    1.9849 H   0  0  0  0  0  0  0  0  0  0  0  0
   -6.2735   -1.9488    2.8714 H   0  0  0  0  0  0  0  0  0  0  0  0
   -3.5967   -2.2234    1.9165 H   0  0  0  0  0  0  0  0  0  0  0  0
  1  2  2  0  0  0  0
  2  3  1  0  0  0  0
  2 13  1  0  0  0  0
  3  4  1  0  0  0  0
  3 30  1  0  0  0  0
  4  5  1  0  0  0  0
  4 12  2  0  0  0  0
  5  6  2  0  0  0  0
  5 31  1  0  0  0  0
  6  7  1  0  0  0  0
  6 10  1  0  0  0  0
  7  8  2  0  0  0  0
  7  9  1  0  0  0  0
  9 32  1  0  0  0  0
 10 11  2  0  0  0  0
 10 33  1  0  0  0  0
 11 12  1  0  0  0  0
 11 34  1  0  0  0  0
 12 13  1  0  0  0  0
 13 14  2  3  0  0  0
 14 15  1  0  0  0  0
 14 21  1  0  0  0  0
 15 16  1  0  0  0  0
 15 20  2  0  0  0  0
 16 17  2  0  0  0  0
 16 35  1  0  0  0  0
 17 18  1  0  0  0  0
 17 36  1  0  0  0  0
 18 19  2  0  0  0  0
 18 37  1  0  0  0  0
 19 20  1  0  0  0  0
 19 38  1  0  0  0  0
 20 39  1  0  0  0  0
 21 22  2  0  0  0  0
 21 29  1  0  0  0  0
 22 23  1  0  0  0  0
 23 24  1  0  0  0  0
 23 28  2  0  0  0  0
 24 25  2  0  0  0  0
 24 40  1  0  0  0  0
 25 26  1  0  0  0  0
 25 41  1  0  0  0  0
 26 27  2  0  0  0  0
 26 42  1  0  0  0  0
 27 28  1  0  0  0  0
 27 43  1  0  0  0  0
 28 29  1  0  0  0  0
 29 44  1  0  0  0  0
M  END
$$$$
