CHEMBL452679
 OpenBabel04072215383D

191193  0  0  0  0  0  0  0  0999 V2000
    7.2324   -3.9597   -1.2944 C   0  0  0  0  0  0  0  0  0  0  0  0
    6.7068   -2.5447   -1.5253 C   0  0  0  0  0  0  0  0  0  0  0  0
    5.4828   -2.2534   -0.6647 C   0  0  0  0  0  0  0  0  0  0  0  0
    7.8560   -1.5590   -1.2569 C   0  0  0  0  0  0  0  0  0  0  0  0
    7.5918   -0.1944   -1.6656 N   0  0  0  0  0  0  0  0  0  0  0  0
    7.3010    0.8201   -0.6974 C   0  0  0  0  0  0  0  0  0  0  0  0
    7.3592    0.7480    0.8206 C   0  0  0  0  0  0  0  0  0  0  0  0
    6.6515   -0.0616    1.4174 O   0  0  0  0  0  0  0  0  0  0  0  0
    8.1209    1.7198    1.4630 N   0  0  0  0  0  0  0  0  0  0  0  0
    8.0355    1.8079    2.9104 C   0  0  0  0  0  0  0  0  0  0  0  0
    7.4057    3.1242    3.3803 C   0  0  0  0  0  0  0  0  0  0  0  0
    7.4347    3.1582    4.9069 C   0  0  0  0  0  0  0  0  0  0  0  0
    6.8561    4.4431    5.4831 C   0  0  0  0  0  0  0  0  0  0  0  0
    6.9305    4.3803    6.9377 N   0  0  0  0  0  0  0  0  0  0  0  0
    9.2600    2.4092    0.8275 C   0  0  0  0  0  0  0  0  0  0  0  0
   10.4597    1.4562    0.6595 C   0  0  0  0  0  0  0  0  0  0  0  0
   10.5576    0.4493    1.3472 O   0  0  0  0  0  0  0  0  0  0  0  0
   11.4725    1.8095   -0.2457 N   0  0  0  0  0  0  0  0  0  0  0  0
   11.2830    2.8093   -1.2817 C   0  0  0  0  0  0  0  0  0  0  0  0
   11.1233    4.2813   -0.9276 C   0  0  0  0  0  0  0  0  0  0  0  0
   12.4253    4.8314   -0.3815 C   0  0  0  0  0  0  0  0  0  0  0  0
   12.2970    6.3231   -0.1267 C   0  0  0  0  0  0  0  0  0  0  0  0
   13.5361    6.8052    0.4623 N   0  0  0  0  0  0  0  0  0  0  0  0
   12.7159    0.9659   -0.2866 C   0  0  0  0  0  0  0  0  0  0  0  0
   13.3179    0.3356   -1.5798 C   0  0  0  0  0  0  0  0  0  0  0  0
   13.5138   -1.0273   -1.5658 N   0  0  0  0  0  0  0  0  0  0  0  0
   13.6072    0.9650   -2.5932 O   0  0  0  0  0  0  0  0  0  0  0  0
    7.3941    0.0998   -2.9986 C   0  0  0  0  0  0  0  0  0  0  0  0
    7.4841   -0.7616   -3.8845 O   0  0  0  0  0  0  0  0  0  0  0  0
    6.8337    1.5047   -3.3816 C   0  0  0  0  0  0  0  0  0  0  0  0
    7.1782    2.8733   -2.9688 N   0  0  0  0  0  0  0  0  0  0  0  0
    6.3477    3.5740   -1.9421 C   0  0  0  0  0  0  0  0  0  0  0  0
    5.1347    4.4737   -2.2896 C   0  0  0  0  0  0  0  0  0  0  0  0
    3.7209    3.9139   -2.5774 C   0  0  0  0  0  0  0  0  0  0  0  0
    3.2750    2.6484   -1.8345 C   0  0  0  0  0  0  0  0  0  0  0  0
    2.0651    2.0806   -2.4399 N   0  0  0  0  0  0  0  0  0  0  0  0
    8.3145    3.5251   -3.5115 C   0  0  0  0  0  0  0  0  0  0  0  0
    8.6922    4.5921   -3.0261 O   0  0  0  0  0  0  0  0  0  0  0  0
    8.9785    2.9046   -4.7942 C   0  0  0  0  0  0  0  0  0  0  0  0
   10.4406    2.8137   -5.0653 N   0  0  0  0  0  0  0  0  0  0  0  0
   11.2624    1.8065   -4.3774 C   0  0  0  0  0  0  0  0  0  0  0  0
   10.4498    0.5479   -4.0634 C   0  0  0  0  0  0  0  0  0  0  0  0
   10.2275   -0.2140   -5.3655 C   0  0  0  0  0  0  0  0  0  0  0  0
   10.9318   -0.4624   -3.0577 C   0  0  0  0  0  0  0  0  0  0  0  0
   11.0103    3.2986   -6.2417 C   0  0  0  0  0  0  0  0  0  0  0  0
   12.2311    3.3424   -6.4405 O   0  0  0  0  0  0  0  0  0  0  0  0
   10.0440    3.5100   -7.3985 C   0  0  0  0  0  0  0  0  0  0  0  0
    9.2141    4.7139   -7.5301 N   0  0  0  0  0  0  0  0  0  0  0  0
    8.6204    4.8837   -8.8424 C   0  0  0  0  0  0  0  0  0  0  0  0
    9.6701    5.2801   -9.8605 C   0  0  0  0  0  0  0  0  0  0  0  0
   10.5150    6.4647   -9.3857 C   0  0  0  0  0  0  0  0  0  0  0  0
   11.5633    6.7565  -10.4407 C   0  0  0  0  0  0  0  0  0  0  0  0
   12.3873    7.8861  -10.0540 N   0  0  0  0  0  0  0  0  0  0  0  0
    9.0487    5.6140   -6.4924 C   0  0  0  0  0  0  0  0  0  0  0  0
    9.8312    5.6370   -5.5355 O   0  0  0  0  0  0  0  0  0  0  0  0
    7.9937    6.7528   -6.5991 C   0  0  0  0  0  0  0  0  0  0  0  0
    6.5685    6.6900   -7.0120 N   0  0  0  0  0  0  0  0  0  0  0  0
    5.9244    7.9934   -7.1798 C   0  0  0  0  0  0  0  0  0  0  0  0
    5.6443    8.6796   -5.8860 C   0  0  0  0  0  0  0  0  0  0  0  0
    5.9572    9.9452   -5.4281 C   0  0  0  0  0  0  0  0  0  0  0  0
    5.3811   10.0666   -4.1434 C   0  0  0  0  0  0  0  0  0  0  0  0
    4.7441    8.8724   -3.8980 C   0  0  0  0  0  0  0  0  0  0  0  0
    4.8913    8.0236   -4.9528 O   0  0  0  0  0  0  0  0  0  0  0  0
    5.8897    5.4822   -7.2049 C   0  0  0  0  0  0  0  0  0  0  0  0
    6.4917    4.4086   -7.0977 O   0  0  0  0  0  0  0  0  0  0  0  0
    4.3804    5.5435   -7.6469 C   0  0  0  0  0  0  0  0  0  0  0  0
    3.5342    4.3241   -7.6772 N   0  0  0  0  0  0  0  0  0  0  0  0
    3.2901    3.6258   -6.4125 C   0  0  0  0  0  0  0  0  0  0  0  0
    4.5253    2.8342   -6.0710 C   0  0  0  0  0  0  0  0  0  0  0  0
    4.4630    1.6724   -5.1319 C   0  0  0  0  0  0  0  0  0  0  0  0
    3.5824    0.4679   -5.2230 C   0  0  0  0  0  0  0  0  0  0  0  0
    2.1842    0.8158   -5.1736 N   0  0  0  0  0  0  0  0  0  0  0  0
    3.2171    3.7384   -8.9052 C   0  0  0  0  0  0  0  0  0  0  0  0
    3.6525    4.1493   -9.9611 O   0  0  0  0  0  0  0  0  0  0  0  0
    2.2975    2.4874   -8.8180 C   0  0  0  0  0  0  0  0  0  0  0  0
    1.6755    2.1049  -10.0994 N   0  0  0  0  0  0  0  0  0  0  0  0
    0.9173    0.8400   -9.9552 C   0  0  0  0  0  0  0  0  0  0  0  0
   -0.2784    0.9377   -8.9876 C   0  0  0  0  0  0  0  0  0  0  0  0
   -1.0636   -0.3307   -8.8645 C   0  0  0  0  0  0  0  0  0  0  0  0
   -2.1635   -0.6890   -9.6194 C   0  0  0  0  0  0  0  0  0  0  0  0
   -2.6436   -1.8789   -9.1400 N   0  0  0  0  0  0  0  0  0  0  0  0
   -1.8829   -2.3087   -8.0765 C   0  0  0  0  0  0  0  0  0  0  0  0
   -2.0187   -3.4384   -7.2575 C   0  0  0  0  0  0  0  0  0  0  0  0
   -1.0983   -3.6053   -6.2236 C   0  0  0  0  0  0  0  0  0  0  0  0
   -0.0498   -2.7099   -6.0354 C   0  0  0  0  0  0  0  0  0  0  0  0
    0.0787   -1.5949   -6.8770 C   0  0  0  0  0  0  0  0  0  0  0  0
   -0.8676   -1.3738   -7.9017 C   0  0  0  0  0  0  0  0  0  0  0  0
    6.4741   -4.7092   -1.5359 H   0  0  0  0  0  0  0  0  0  0  0  0
    7.5444   -4.0965   -0.2543 H   0  0  0  0  0  0  0  0  0  0  0  0
    8.1039   -4.1509   -1.9328 H   0  0  0  0  0  0  0  0  0  0  0  0
    6.3915   -2.4825   -2.5746 H   0  0  0  0  0  0  0  0  0  0  0  0
    5.7179   -2.3436    0.3992 H   0  0  0  0  0  0  0  0  0  0  0  0
    4.6750   -2.9559   -0.8945 H   0  0  0  0  0  0  0  0  0  0  0  0
    5.1003   -1.2448   -0.8515 H   0  0  0  0  0  0  0  0  0  0  0  0
    8.7071   -1.9021   -1.8500 H   0  0  0  0  0  0  0  0  0  0  0  0
    8.1860   -1.5810   -0.2134 H   0  0  0  0  0  0  0  0  0  0  0  0
    6.2403    1.0302   -0.8656 H   0  0  0  0  0  0  0  0  0  0  0  0
    7.8775    1.6613   -1.0314 H   0  0  0  0  0  0  0  0  0  0  0  0
    9.0465    1.6951    3.3127 H   0  0  0  0  0  0  0  0  0  0  0  0
    7.4384    0.9801    3.3048 H   0  0  0  0  0  0  0  0  0  0  0  0
    6.3735    3.2051    3.0147 H   0  0  0  0  0  0  0  0  0  0  0  0
    7.9486    3.9862    2.9738 H   0  0  0  0  0  0  0  0  0  0  0  0
    8.4741    3.0458    5.2418 H   0  0  0  0  0  0  0  0  0  0  0  0
    6.8782    2.2944    5.2925 H   0  0  0  0  0  0  0  0  0  0  0  0
    5.8147    4.5749    5.1712 H   0  0  0  0  0  0  0  0  0  0  0  0
    7.4274    5.3078    5.1298 H   0  0  0  0  0  0  0  0  0  0  0  0
    6.3158    3.6415    7.2799 H   0  0  0  0  0  0  0  0  0  0  0  0
    6.5869    5.2497    7.3412 H   0  0  0  0  0  0  0  0  0  0  0  0
    9.5789    3.2273    1.4798 H   0  0  0  0  0  0  0  0  0  0  0  0
    8.9417    2.8533   -0.1096 H   0  0  0  0  0  0  0  0  0  0  0  0
   10.4069    2.4966   -1.8592 H   0  0  0  0  0  0  0  0  0  0  0  0
   12.1843    2.7781   -1.8867 H   0  0  0  0  0  0  0  0  0  0  0  0
   10.2992    4.4845   -0.2428 H   0  0  0  0  0  0  0  0  0  0  0  0
   10.8863    4.8229   -1.8534 H   0  0  0  0  0  0  0  0  0  0  0  0
   13.2290    4.6488   -1.1071 H   0  0  0  0  0  0  0  0  0  0  0  0
   12.6831    4.2947    0.5383 H   0  0  0  0  0  0  0  0  0  0  0  0
   11.4605    6.5213    0.5505 H   0  0  0  0  0  0  0  0  0  0  0  0
   12.1004    6.8522   -1.0663 H   0  0  0  0  0  0  0  0  0  0  0  0
   13.7174    6.3108    1.3326 H   0  0  0  0  0  0  0  0  0  0  0  0
   13.4436    7.7900    0.6917 H   0  0  0  0  0  0  0  0  0  0  0  0
   12.6038    0.1385    0.4186 H   0  0  0  0  0  0  0  0  0  0  0  0
   13.5120    1.6099    0.0948 H   0  0  0  0  0  0  0  0  0  0  0  0
   12.9975   -1.6254   -0.9332 H   0  0  0  0  0  0  0  0  0  0  0  0
   13.7470   -1.4423   -2.4648 H   0  0  0  0  0  0  0  0  0  0  0  0
    5.7947    1.3761   -3.1147 H   0  0  0  0  0  0  0  0  0  0  0  0
    6.9595    1.5141   -4.4596 H   0  0  0  0  0  0  0  0  0  0  0  0
    7.0421    4.2279   -1.4023 H   0  0  0  0  0  0  0  0  0  0  0  0
    6.0000    2.8671   -1.2010 H   0  0  0  0  0  0  0  0  0  0  0  0
    5.4000    5.1942   -3.0709 H   0  0  0  0  0  0  0  0  0  0  0  0
    4.9810    5.0710   -1.3780 H   0  0  0  0  0  0  0  0  0  0  0  0
    3.6084    3.7976   -3.6525 H   0  0  0  0  0  0  0  0  0  0  0  0
    2.9914    4.7044   -2.3438 H   0  0  0  0  0  0  0  0  0  0  0  0
    3.0719    2.8807   -0.7853 H   0  0  0  0  0  0  0  0  0  0  0  0
    4.0437    1.8750   -1.8612 H   0  0  0  0  0  0  0  0  0  0  0  0
    1.3073    2.7651   -2.4293 H   0  0  0  0  0  0  0  0  0  0  0  0
    1.7371    1.2979   -1.8687 H   0  0  0  0  0  0  0  0  0  0  0  0
    8.4739    3.4461   -5.5856 H   0  0  0  0  0  0  0  0  0  0  0  0
    8.6308    1.9048   -4.9952 H   0  0  0  0  0  0  0  0  0  0  0  0
   11.6733    2.3189   -3.5345 H   0  0  0  0  0  0  0  0  0  0  0  0
   12.1422    1.5321   -4.9736 H   0  0  0  0  0  0  0  0  0  0  0  0
    9.5279    0.8858   -3.6100 H   0  0  0  0  0  0  0  0  0  0  0  0
   11.1922   -0.5459   -5.7638 H   0  0  0  0  0  0  0  0  0  0  0  0
    9.7418    0.3995   -6.1253 H   0  0  0  0  0  0  0  0  0  0  0  0
    9.6125   -1.1003   -5.1988 H   0  0  0  0  0  0  0  0  0  0  0  0
   11.8640   -0.9182   -3.3785 H   0  0  0  0  0  0  0  0  0  0  0  0
   10.2159   -1.2815   -2.9861 H   0  0  0  0  0  0  0  0  0  0  0  0
   10.9709   -0.0409   -2.0560 H   0  0  0  0  0  0  0  0  0  0  0  0
    9.3687    2.6414   -7.4308 H   0  0  0  0  0  0  0  0  0  0  0  0
   10.6576    3.4005   -8.2981 H   0  0  0  0  0  0  0  0  0  0  0  0
    7.8632    5.6617   -8.8446 H   0  0  0  0  0  0  0  0  0  0  0  0
    8.1336    3.9431   -9.1283 H   0  0  0  0  0  0  0  0  0  0  0  0
    9.1660    5.5244  -10.8003 H   0  0  0  0  0  0  0  0  0  0  0  0
   10.3258    4.4283  -10.0723 H   0  0  0  0  0  0  0  0  0  0  0  0
   11.0169    6.2418   -8.4341 H   0  0  0  0  0  0  0  0  0  0  0  0
    9.8720    7.3362   -9.2113 H   0  0  0  0  0  0  0  0  0  0  0  0
   11.0685    6.9670  -11.3935 H   0  0  0  0  0  0  0  0  0  0  0  0
   12.1976    5.8736  -10.5744 H   0  0  0  0  0  0  0  0  0  0  0  0
   11.8121    8.7147   -9.9226 H   0  0  0  0  0  0  0  0  0  0  0  0
   13.0382    8.0909  -10.8093 H   0  0  0  0  0  0  0  0  0  0  0  0
    8.4587    7.4466   -7.3062 H   0  0  0  0  0  0  0  0  0  0  0  0
    8.0022    7.2526   -5.6243 H   0  0  0  0  0  0  0  0  0  0  0  0
    4.9993    7.9190   -7.7524 H   0  0  0  0  0  0  0  0  0  0  0  0
    6.6049    8.6077   -7.7796 H   0  0  0  0  0  0  0  0  0  0  0  0
    6.5227   10.6945   -5.9645 H   0  0  0  0  0  0  0  0  0  0  0  0
    5.4186   10.9216   -3.4812 H   0  0  0  0  0  0  0  0  0  0  0  0
    4.1671    8.4955   -3.0643 H   0  0  0  0  0  0  0  0  0  0  0  0
    4.3779    5.9806   -8.6539 H   0  0  0  0  0  0  0  0  0  0  0  0
    3.8509    6.2309   -6.9759 H   0  0  0  0  0  0  0  0  0  0  0  0
    2.4377    2.9619   -6.4809 H   0  0  0  0  0  0  0  0  0  0  0  0
    3.0296    4.3761   -5.6605 H   0  0  0  0  0  0  0  0  0  0  0  0
    5.2069    3.5362   -5.5742 H   0  0  0  0  0  0  0  0  0  0  0  0
    5.0174    2.4797   -6.9831 H   0  0  0  0  0  0  0  0  0  0  0  0
    4.3782    2.0735   -4.1334 H   0  0  0  0  0  0  0  0  0  0  0  0
    5.4381    1.2271   -5.2645 H   0  0  0  0  0  0  0  0  0  0  0  0
    3.8224   -0.1560   -4.3478 H   0  0  0  0  0  0  0  0  0  0  0  0
    3.8430   -0.1143   -6.1088 H   0  0  0  0  0  0  0  0  0  0  0  0
    2.0249    1.3554   -4.3077 H   0  0  0  0  0  0  0  0  0  0  0  0
    1.6628   -0.0450   -5.0205 H   0  0  0  0  0  0  0  0  0  0  0  0
    1.4749    2.7507   -8.1468 H   0  0  0  0  0  0  0  0  0  0  0  0
    2.8777    1.6630   -8.4160 H   0  0  0  0  0  0  0  0  0  0  0  0
    2.4195    1.9834  -10.7883 H   0  0  0  0  0  0  0  0  0  0  0  0
    1.5885    0.0267   -9.6473 H   0  0  0  0  0  0  0  0  0  0  0  0
    0.5413    0.5635  -10.9494 H   0  0  0  0  0  0  0  0  0  0  0  0
   -0.9445    1.7479   -9.3113 H   0  0  0  0  0  0  0  0  0  0  0  0
    0.0625    1.2088   -7.9802 H   0  0  0  0  0  0  0  0  0  0  0  0
   -2.6502   -0.1903  -10.4459 H   0  0  0  0  0  0  0  0  0  0  0  0
   -3.4530   -2.3642   -9.4998 H   0  0  0  0  0  0  0  0  0  0  0  0
   -2.8332   -4.1464   -7.4090 H   0  0  0  0  0  0  0  0  0  0  0  0
   -1.1785   -4.4786   -5.5786 H   0  0  0  0  0  0  0  0  0  0  0  0
    0.6719   -2.8802   -5.2428 H   0  0  0  0  0  0  0  0  0  0  0  0
    0.9001   -0.8998   -6.7567 H   0  0  0  0  0  0  0  0  0  0  0  0
  1  2  1  0  0  0  0
  1 88  1  0  0  0  0
  1 89  1  0  0  0  0
  1 90  1  0  0  0  0
  2  3  1  0  0  0  0
  2  4  1  0  0  0  0
  2 91  1  0  0  0  0
  3 92  1  0  0  0  0
  3 93  1  0  0  0  0
  3 94  1  0  0  0  0
  4  5  1  0  0  0  0
  4 95  1  0  0  0  0
  4 96  1  0  0  0  0
  5  6  1  0  0  0  0
  5 28  1  0  0  0  0
  6  7  1  0  0  0  0
  6 97  1  0  0  0  0
  6 98  1  0  0  0  0
  7  8  2  0  0  0  0
  7  9  1  0  0  0  0
  9 10  1  0  0  0  0
  9 15  1  0  0  0  0
 10 11  1  0  0  0  0
 10 99  1  0  0  0  0
 10100  1  0  0  0  0
 11 12  1  0  0  0  0
 11101  1  0  0  0  0
 11102  1  0  0  0  0
 12 13  1  0  0  0  0
 12103  1  0  0  0  0
 12104  1  0  0  0  0
 13 14  1  0  0  0  0
 13105  1  0  0  0  0
 13106  1  0  0  0  0
 14107  1  0  0  0  0
 14108  1  0  0  0  0
 15 16  1  0  0  0  0
 15109  1  0  0  0  0
 15110  1  0  0  0  0
 16 17  2  0  0  0  0
 16 18  1  0  0  0  0
 18 19  1  0  0  0  0
 18 24  1  0  0  0  0
 19 20  1  0  0  0  0
 19111  1  0  0  0  0
 19112  1  0  0  0  0
 20 21  1  0  0  0  0
 20113  1  0  0  0  0
 20114  1  0  0  0  0
 21 22  1  0  0  0  0
 21115  1  0  0  0  0
 21116  1  0  0  0  0
 22 23  1  0  0  0  0
 22117  1  0  0  0  0
 22118  1  0  0  0  0
 23119  1  0  0  0  0
 23120  1  0  0  0  0
 24 25  1  0  0  0  0
 24121  1  0  0  0  0
 24122  1  0  0  0  0
 25 26  1  0  0  0  0
 25 27  2  0  0  0  0
 26123  1  0  0  0  0
 26124  1  0  0  0  0
 28 29  2  0  0  0  0
 28 30  1  0  0  0  0
 30 31  1  0  0  0  0
 30125  1  0  0  0  0
 30126  1  0  0  0  0
 31 32  1  0  0  0  0
 31 37  1  0  0  0  0
 32 33  1  0  0  0  0
 32127  1  0  0  0  0
 32128  1  0  0  0  0
 33 34  1  0  0  0  0
 33129  1  0  0  0  0
 33130  1  0  0  0  0
 34 35  1  0  0  0  0
 34131  1  0  0  0  0
 34132  1  0  0  0  0
 35 36  1  0  0  0  0
 35133  1  0  0  0  0
 35134  1  0  0  0  0
 36135  1  0  0  0  0
 36136  1  0  0  0  0
 37 38  2  0  0  0  0
 37 39  1  0  0  0  0
 39 40  1  0  0  0  0
 39137  1  0  0  0  0
 39138  1  0  0  0  0
 40 41  1  0  0  0  0
 40 45  1  0  0  0  0
 41 42  1  0  0  0  0
 41139  1  0  0  0  0
 41140  1  0  0  0  0
 42 43  1  0  0  0  0
 42 44  1  0  0  0  0
 42141  1  0  0  0  0
 43142  1  0  0  0  0
 43143  1  0  0  0  0
 43144  1  0  0  0  0
 44145  1  0  0  0  0
 44146  1  0  0  0  0
 44147  1  0  0  0  0
 45 46  2  0  0  0  0
 45 47  1  0  0  0  0
 47 48  1  0  0  0  0
 47148  1  0  0  0  0
 47149  1  0  0  0  0
 48 49  1  0  0  0  0
 48 54  1  0  0  0  0
 49 50  1  0  0  0  0
 49150  1  0  0  0  0
 49151  1  0  0  0  0
 50 51  1  0  0  0  0
 50152  1  0  0  0  0
 50153  1  0  0  0  0
 51 52  1  0  0  0  0
 51154  1  0  0  0  0
 51155  1  0  0  0  0
 52 53  1  0  0  0  0
 52156  1  0  0  0  0
 52157  1  0  0  0  0
 53158  1  0  0  0  0
 53159  1  0  0  0  0
 54 55  2  0  0  0  0
 54 56  1  0  0  0  0
 56 57  1  0  0  0  0
 56160  1  0  0  0  0
 56161  1  0  0  0  0
 57 58  1  0  0  0  0
 57 64  1  0  0  0  0
 58 59  1  0  0  0  0
 58162  1  0  0  0  0
 58163  1  0  0  0  0
 59 60  2  0  0  0  0
 59 63  1  0  0  0  0
 60 61  1  0  0  0  0
 60164  1  0  0  0  0
 61 62  2  0  0  0  0
 61165  1  0  0  0  0
 62 63  1  0  0  0  0
 62166  1  0  0  0  0
 64 65  2  0  0  0  0
 64 66  1  0  0  0  0
 66 67  1  0  0  0  0
 66167  1  0  0  0  0
 66168  1  0  0  0  0
 67 68  1  0  0  0  0
 67 73  1  0  0  0  0
 68 69  1  0  0  0  0
 68169  1  0  0  0  0
 68170  1  0  0  0  0
 69 70  1  0  0  0  0
 69171  1  0  0  0  0
 69172  1  0  0  0  0
 70 71  1  0  0  0  0
 70173  1  0  0  0  0
 70174  1  0  0  0  0
 71 72  1  0  0  0  0
 71175  1  0  0  0  0
 71176  1  0  0  0  0
 72177  1  0  0  0  0
 72178  1  0  0  0  0
 73 74  2  0  0  0  0
 73 75  1  0  0  0  0
 75 76  1  0  0  0  0
 75179  1  0  0  0  0
 75180  1  0  0  0  0
 76 77  1  0  0  0  0
 76181  1  0  0  0  0
 77 78  1  0  0  0  0
 77182  1  0  0  0  0
 77183  1  0  0  0  0
 78 79  1  0  0  0  0
 78184  1  0  0  0  0
 78185  1  0  0  0  0
 79 80  2  0  0  0  0
 79 87  1  0  0  0  0
 80 81  1  0  0  0  0
 80186  1  0  0  0  0
 81 82  1  0  0  0  0
 81187  1  0  0  0  0
 82 83  1  0  0  0  0
 82 87  2  0  0  0  0
 83 84  2  0  0  0  0
 83188  1  0  0  0  0
 84 85  1  0  0  0  0
 84189  1  0  0  0  0
 85 86  2  0  0  0  0
 85190  1  0  0  0  0
 86 87  1  0  0  0  0
 86191  1  0  0  0  0
M  END
$$$$
