CHEMBL4467628
 OpenBabel04072215383D

 45 48  0  0  0  0  0  0  0  0999 V2000
   -3.9156   -0.1584   -0.8265 O   0  0  0  0  0  0  0  0  0  0  0  0
   -2.7233    0.0146   -0.6858 C   0  0  0  0  0  0  0  0  0  0  0  0
   -1.9825    1.1715   -0.8142 N   0  0  0  0  0  0  0  0  0  0  0  0
   -0.6341    0.9225   -0.5767 C   0  0  0  0  0  0  0  0  0  0  0  0
    0.4067    1.8306   -0.6208 C   0  0  0  0  0  0  0  0  0  0  0  0
    1.6918    1.3462   -0.3497 C   0  0  0  0  0  0  0  0  0  0  0  0
    1.9035   -0.0154   -0.0454 C   0  0  0  0  0  0  0  0  0  0  0  0
    3.5031   -0.5642    0.2780 Cl  0  0  0  0  0  0  0  0  0  0  0  0
    0.8433   -0.9226   -0.0036 C   0  0  0  0  0  0  0  0  0  0  0  0
   -0.4142   -0.4209   -0.2725 C   0  0  0  0  0  0  0  0  0  0  0  0
   -1.7192   -1.0809   -0.3153 C   0  0  0  0  0  0  0  0  0  0  0  0
   -1.9334   -2.3364   -0.0816 N   0  0  0  0  0  0  0  0  0  0  0  0
   -3.2232   -2.8004   -0.1668 N   0  0  0  0  0  0  0  0  0  0  0  0
   -3.4844   -4.1443    0.0922 C   0  0  0  0  0  0  0  0  0  0  0  0
   -2.6369   -4.9713    0.4209 O   0  0  0  0  0  0  0  0  0  0  0  0
   -4.9012   -4.5977   -0.0416 C   0  0  0  0  0  0  0  0  0  0  0  0
   -5.7798   -3.9807   -0.9265 C   0  0  0  0  0  0  0  0  0  0  0  0
   -7.0875   -4.4617   -1.0691 C   0  0  0  0  0  0  0  0  0  0  0  0
   -7.5588   -5.5581   -0.3380 C   0  0  0  0  0  0  0  0  0  0  0  0
   -8.8872   -6.0551   -0.4505 N   0  0  0  0  0  0  0  0  0  0  0  0
   -9.8744   -5.5184   -1.2666 C   0  0  0  0  0  0  0  0  0  0  0  0
   -9.7430   -4.5458   -2.0105 O   0  0  0  0  0  0  0  0  0  0  0  0
  -11.2285   -6.1383   -1.2559 C   0  0  0  0  0  0  0  0  0  0  0  0
  -11.7644   -6.8075   -0.1509 C   0  0  0  0  0  0  0  0  0  0  0  0
  -13.1034   -7.2231   -0.1743 C   0  0  0  0  0  0  0  0  0  0  0  0
  -13.9014   -6.9731   -1.2940 C   0  0  0  0  0  0  0  0  0  0  0  0
  -15.5550   -7.4455   -1.2938 Cl  0  0  0  0  0  0  0  0  0  0  0  0
  -13.3747   -6.3196   -2.4020 C   0  0  0  0  0  0  0  0  0  0  0  0
  -12.0423   -5.9079   -2.3820 C   0  0  0  0  0  0  0  0  0  0  0  0
   -6.6654   -6.1942    0.5334 C   0  0  0  0  0  0  0  0  0  0  0  0
   -5.3479   -5.7183    0.6774 C   0  0  0  0  0  0  0  0  0  0  0  0
   -2.3848    2.0671   -1.0544 H   0  0  0  0  0  0  0  0  0  0  0  0
    0.2496    2.8778   -0.8548 H   0  0  0  0  0  0  0  0  0  0  0  0
    2.5395    2.0304   -0.3748 H   0  0  0  0  0  0  0  0  0  0  0  0
    0.9911   -1.9728    0.2274 H   0  0  0  0  0  0  0  0  0  0  0  0
   -3.9696   -2.1364   -0.3782 H   0  0  0  0  0  0  0  0  0  0  0  0
   -5.4724   -3.1466   -1.5488 H   0  0  0  0  0  0  0  0  0  0  0  0
   -7.7077   -3.9446   -1.7930 H   0  0  0  0  0  0  0  0  0  0  0  0
   -9.1065   -6.8777    0.0967 H   0  0  0  0  0  0  0  0  0  0  0  0
  -11.1867   -6.9607    0.7547 H   0  0  0  0  0  0  0  0  0  0  0  0
  -13.5329   -7.7109    0.6973 H   0  0  0  0  0  0  0  0  0  0  0  0
  -13.9929   -6.0990   -3.2683 H   0  0  0  0  0  0  0  0  0  0  0  0
  -11.6446   -5.3659   -3.2401 H   0  0  0  0  0  0  0  0  0  0  0  0
   -6.9665   -7.0667    1.1069 H   0  0  0  0  0  0  0  0  0  0  0  0
   -4.6631   -6.2304    1.3534 H   0  0  0  0  0  0  0  0  0  0  0  0
  1  2  2  0  0  0  0
  2  3  1  0  0  0  0
  2 11  1  0  0  0  0
  3  4  1  0  0  0  0
  3 32  1  0  0  0  0
  4  5  1  0  0  0  0
  4 10  2  0  0  0  0
  5  6  2  0  0  0  0
  5 33  1  0  0  0  0
  6  7  1  0  0  0  0
  6 34  1  0  0  0  0
  7  8  1  0  0  0  0
  7  9  2  0  0  0  0
  9 10  1  0  0  0  0
  9 35  1  0  0  0  0
 10 11  1  0  0  0  0
 11 12  2  0  0  0  0
 12 13  1  0  0  0  0
 13 14  1  0  0  0  0
 13 36  1  0  0  0  0
 14 15  2  0  0  0  0
 14 16  1  0  0  0  0
 16 17  1  0  0  0  0
 16 31  2  0  0  0  0
 17 18  2  0  0  0  0
 17 37  1  0  0  0  0
 18 19  1  0  0  0  0
 18 38  1  0  0  0  0
 19 20  1  0  0  0  0
 19 30  2  0  0  0  0
 20 21  1  0  0  0  0
 20 39  1  0  0  0  0
 21 22  2  0  0  0  0
 21 23  1  0  0  0  0
 23 24  1  0  0  0  0
 23 29  2  0  0  0  0
 24 25  2  0  0  0  0
 24 40  1  0  0  0  0
 25 26  1  0  0  0  0
 25 41  1  0  0  0  0
 26 27  1  0  0  0  0
 26 28  2  0  0  0  0
 28 29  1  0  0  0  0
 28 42  1  0  0  0  0
 29 43  1  0  0  0  0
 30 31  1  0  0  0  0
 30 44  1  0  0  0  0
 31 45  1  0  0  0  0
M  END
$$$$
