CHEMBL1683647
 OpenBabel04072215363D

 53 55  0  0  1  0  0  0  0  0999 V2000
    5.0562    1.8083   -1.7790 C   0  0  0  0  0  0  0  0  0  0  0  0
    4.7847    1.9093   -0.2905 C   0  0  0  0  0  0  0  0  0  0  0  0
    5.3118    0.9491    0.5023 C   0  0  0  0  0  0  0  0  0  0  0  0
    4.4157   -0.2090    0.9347 C   0  0  0  0  0  0  0  0  0  0  0  0
    2.9951   -0.0359    0.3610 C   0  0  2  0  0  0  0  0  0  0  0  0
    2.5196    1.3764    0.7759 C   0  0  1  0  0  0  0  0  0  0  0  0
    3.3840    2.4269    0.0238 C   0  0  0  0  0  0  0  0  0  0  0  0
    1.0419    1.5380    0.5391 C   0  0  0  0  0  0  0  0  0  0  0  0
    0.3937    2.7474    0.7966 C   0  0  0  0  0  0  0  0  0  0  0  0
    1.0904    3.7832    1.3454 O   0  0  0  0  0  0  0  0  0  0  0  0
   -0.9475    2.9194    0.4906 C   0  0  0  0  0  0  0  0  0  0  0  0
   -1.6447    1.9231   -0.2020 C   0  0  0  0  0  0  0  0  0  0  0  0
   -3.0151    2.2105   -0.7552 C   0  0  0  0  0  0  0  0  0  0  0  0
   -2.9663    3.4727   -1.6166 C   0  0  0  0  0  0  0  0  0  0  0  0
   -4.3255    3.8302   -2.2040 C   0  0  0  0  0  0  0  0  0  0  0  0
   -4.2357    5.1264   -3.0060 C   0  0  0  0  0  0  0  0  0  0  0  0
   -5.5847    5.4850   -3.5985 C   0  0  0  0  0  0  0  0  0  0  0  0
   -5.4480    7.1511   -4.5899 Br  0  0  0  0  0  0  0  0  0  0  0  0
   -1.0295    0.6799   -0.3897 C   0  0  0  0  0  0  0  0  0  0  0  0
    0.2814    0.4760    0.0442 C   0  0  0  0  0  0  0  0  0  0  0  0
    0.7483   -0.8112   -0.0520 O   0  0  0  0  0  0  0  0  0  0  0  0
    1.9445   -1.1026    0.7232 C   0  0  0  0  0  0  0  0  0  0  0  0
    2.3820   -2.4966    0.2287 C   0  0  0  0  0  0  0  0  0  0  0  0
    1.5751   -1.1761    2.2200 C   0  0  0  0  0  0  0  0  0  0  0  0
    4.1771    1.4338   -2.3123 H   0  0  0  0  0  0  0  0  0  0  0  0
    5.8845    1.1292   -1.9926 H   0  0  0  0  0  0  0  0  0  0  0  0
    5.3088    2.7956   -2.1812 H   0  0  0  0  0  0  0  0  0  0  0  0
    5.8154    1.3332    1.3961 H   0  0  0  0  0  0  0  0  0  0  0  0
    4.3885   -0.2558    2.0312 H   0  0  0  0  0  0  0  0  0  0  0  0
    4.8816   -1.1320    0.5813 H   0  0  0  0  0  0  0  0  0  0  0  0
    3.0645   -0.0641   -0.7361 H   0  0  0  0  0  0  0  0  0  0  0  0
    2.6831    1.5145    1.8524 H   0  0  0  0  0  0  0  0  0  0  0  0
    3.4845    3.3409    0.6225 H   0  0  0  0  0  0  0  0  0  0  0  0
    2.8802    2.7292   -0.9041 H   0  0  0  0  0  0  0  0  0  0  0  0
    0.6524    4.6088    1.0782 H   0  0  0  0  0  0  0  0  0  0  0  0
   -1.4462    3.8489    0.7529 H   0  0  0  0  0  0  0  0  0  0  0  0
   -3.3620    1.3681   -1.3654 H   0  0  0  0  0  0  0  0  0  0  0  0
   -3.7236    2.3257    0.0738 H   0  0  0  0  0  0  0  0  0  0  0  0
   -2.6206    4.3330   -1.0268 H   0  0  0  0  0  0  0  0  0  0  0  0
   -2.2339    3.3445   -2.4260 H   0  0  0  0  0  0  0  0  0  0  0  0
   -5.0530    3.9474   -1.3919 H   0  0  0  0  0  0  0  0  0  0  0  0
   -4.6752    3.0145   -2.8457 H   0  0  0  0  0  0  0  0  0  0  0  0
   -3.4963    5.0165   -3.8076 H   0  0  0  0  0  0  0  0  0  0  0  0
   -3.8801    5.9391   -2.3558 H   0  0  0  0  0  0  0  0  0  0  0  0
   -6.3379    5.6388   -2.8216 H   0  0  0  0  0  0  0  0  0  0  0  0
   -5.9304    4.7231   -4.3010 H   0  0  0  0  0  0  0  0  0  0  0  0
   -1.5606   -0.1355   -0.8738 H   0  0  0  0  0  0  0  0  0  0  0  0
    1.8415   -3.2939    0.7500 H   0  0  0  0  0  0  0  0  0  0  0  0
    3.4495   -2.6875    0.3739 H   0  0  0  0  0  0  0  0  0  0  0  0
    2.1570   -2.6256   -0.8351 H   0  0  0  0  0  0  0  0  0  0  0  0
    0.5016   -1.0184    2.3793 H   0  0  0  0  0  0  0  0  0  0  0  0
    1.8245   -2.1478    2.6590 H   0  0  0  0  0  0  0  0  0  0  0  0
    2.1065   -0.4323    2.8187 H   0  0  0  0  0  0  0  0  0  0  0  0
  1  2  1  0  0  0  0
  1 25  1  0  0  0  0
  1 26  1  0  0  0  0
  1 27  1  0  0  0  0
  2  3  2  3  0  0  0
  2  7  1  0  0  0  0
  3  4  1  0  0  0  0
  3 28  1  0  0  0  0
  4  5  1  0  0  0  0
  4 29  1  0  0  0  0
  4 30  1  0  0  0  0
  5  6  1  0  0  0  0
  5 22  1  0  0  0  0
  5 31  1  6  0  0  0
  6  7  1  0  0  0  0
  6  8  1  0  0  0  0
  6 32  1  1  0  0  0
  7 33  1  0  0  0  0
  7 34  1  0  0  0  0
  8  9  1  0  0  0  0
  8 20  2  0  0  0  0
  9 10  1  0  0  0  0
  9 11  2  0  0  0  0
 10 35  1  0  0  0  0
 11 12  1  0  0  0  0
 11 36  1  0  0  0  0
 12 13  1  0  0  0  0
 12 19  2  0  0  0  0
 13 14  1  0  0  0  0
 13 37  1  0  0  0  0
 13 38  1  0  0  0  0
 14 15  1  0  0  0  0
 14 39  1  0  0  0  0
 14 40  1  0  0  0  0
 15 16  1  0  0  0  0
 15 41  1  0  0  0  0
 15 42  1  0  0  0  0
 16 17  1  0  0  0  0
 16 43  1  0  0  0  0
 16 44  1  0  0  0  0
 17 18  1  0  0  0  0
 17 45  1  0  0  0  0
 17 46  1  0  0  0  0
 19 20  1  0  0  0  0
 19 47  1  0  0  0  0
 20 21  1  0  0  0  0
 21 22  1  0  0  0  0
 22 23  1  0  0  0  0
 22 24  1  0  0  0  0
 23 48  1  0  0  0  0
 23 49  1  0  0  0  0
 23 50  1  0  0  0  0
 24 51  1  0  0  0  0
 24 52  1  0  0  0  0
 24 53  1  0  0  0  0
M  END
$$$$
