CHEMBL281872
 OpenBabel04072215363D

 45 48  0  0  0  0  0  0  0  0999 V2000
    2.2781    0.0238    1.2575 C   0  0  0  0  0  0  0  0  0  0  0  0
    2.3701    0.2750   -0.1427 O   0  0  0  0  0  0  0  0  0  0  0  0
    3.0692   -0.5897   -0.9393 C   0  0  0  0  0  0  0  0  0  0  0  0
    4.0928   -1.3874   -0.4415 C   0  0  0  0  0  0  0  0  0  0  0  0
    4.7242   -2.3610   -1.2396 C   0  0  0  0  0  0  0  0  0  0  0  0
    5.6515   -3.2890   -0.7488 C   0  0  0  0  0  0  0  0  0  0  0  0
    5.9176   -3.3465    0.6479 N   0  0  0  0  0  0  0  0  0  0  0  0
    6.5598   -4.4408    1.2673 C   0  0  0  0  0  0  0  0  0  0  0  0
    6.1863   -5.7570    0.9623 C   0  0  0  0  0  0  0  0  0  0  0  0
    6.9222   -6.8370    1.4472 C   0  0  0  0  0  0  0  0  0  0  0  0
    8.0256   -6.6040    2.2655 C   0  0  0  0  0  0  0  0  0  0  0  0
    9.0932   -8.0600    2.8217 Br  0  0  0  0  0  0  0  0  0  0  0  0
    8.3641   -5.3082    2.6498 C   0  0  0  0  0  0  0  0  0  0  0  0
    7.6212   -4.2403    2.1566 C   0  0  0  0  0  0  0  0  0  0  0  0
    7.9632   -2.9891    2.5042 F   0  0  0  0  0  0  0  0  0  0  0  0
    6.2457   -4.1770   -1.5578 N   0  0  0  0  0  0  0  0  0  0  0  0
    5.8896   -4.1675   -2.8450 C   0  0  0  0  0  0  0  0  0  0  0  0
    4.9744   -3.3657   -3.4024 N   0  0  0  0  0  0  0  0  0  0  0  0
    4.3917   -2.4724   -2.5919 C   0  0  0  0  0  0  0  0  0  0  0  0
    3.4204   -1.6179   -3.1058 C   0  0  0  0  0  0  0  0  0  0  0  0
    2.7787   -0.6561   -2.3089 C   0  0  0  0  0  0  0  0  0  0  0  0
    1.9003    0.1459   -3.0061 O   0  0  0  0  0  0  0  0  0  0  0  0
    1.7207    1.4529   -2.4614 C   0  0  0  0  0  0  0  0  0  0  0  0
    1.3763    2.4695   -3.5380 C   0  0  0  0  0  0  0  0  0  0  0  0
    1.3087    3.7869   -2.9398 N   0  0  0  0  0  0  0  0  0  0  0  0
    0.2325    4.3904   -2.3603 C   0  0  0  0  0  0  0  0  0  0  0  0
    0.7706    5.4964   -1.7474 C   0  0  0  0  0  0  0  0  0  0  0  0
    2.1155    5.5387   -1.9804 N   0  0  0  0  0  0  0  0  0  0  0  0
    2.4370    4.4849   -2.7186 N   0  0  0  0  0  0  0  0  0  0  0  0
    2.5388    0.9470    1.7821 H   0  0  0  0  0  0  0  0  0  0  0  0
    2.9056   -0.7772    1.6518 H   0  0  0  0  0  0  0  0  0  0  0  0
    1.2428   -0.2334    1.4968 H   0  0  0  0  0  0  0  0  0  0  0  0
    4.4385   -1.2645    0.5768 H   0  0  0  0  0  0  0  0  0  0  0  0
    6.2653   -2.4573    0.9950 H   0  0  0  0  0  0  0  0  0  0  0  0
    5.3376   -5.9415    0.3066 H   0  0  0  0  0  0  0  0  0  0  0  0
    6.6434   -7.8454    1.1522 H   0  0  0  0  0  0  0  0  0  0  0  0
    9.2116   -5.1133    3.2978 H   0  0  0  0  0  0  0  0  0  0  0  0
    6.3805   -4.8840   -3.4926 H   0  0  0  0  0  0  0  0  0  0  0  0
    3.1555   -1.7041   -4.1581 H   0  0  0  0  0  0  0  0  0  0  0  0
    2.6386    1.7982   -1.9686 H   0  0  0  0  0  0  0  0  0  0  0  0
    0.9000    1.4136   -1.7351 H   0  0  0  0  0  0  0  0  0  0  0  0
    0.4135    2.2514   -4.0130 H   0  0  0  0  0  0  0  0  0  0  0  0
    2.1336    2.4904   -4.3308 H   0  0  0  0  0  0  0  0  0  0  0  0
   -0.7672    3.9854   -2.4002 H   0  0  0  0  0  0  0  0  0  0  0  0
    0.2770    6.2481   -1.1487 H   0  0  0  0  0  0  0  0  0  0  0  0
  1  2  1  0  0  0  0
  1 30  1  0  0  0  0
  1 31  1  0  0  0  0
  1 32  1  0  0  0  0
  2  3  1  0  0  0  0
  3  4  1  0  0  0  0
  3 21  2  0  0  0  0
  4  5  2  0  0  0  0
  4 33  1  0  0  0  0
  5  6  1  0  0  0  0
  5 19  1  0  0  0  0
  6  7  1  0  0  0  0
  6 16  2  0  0  0  0
  7  8  1  0  0  0  0
  7 34  1  0  0  0  0
  8  9  1  0  0  0  0
  8 14  2  0  0  0  0
  9 10  2  0  0  0  0
  9 35  1  0  0  0  0
 10 11  1  0  0  0  0
 10 36  1  0  0  0  0
 11 12  1  0  0  0  0
 11 13  2  0  0  0  0
 13 14  1  0  0  0  0
 13 37  1  0  0  0  0
 14 15  1  0  0  0  0
 16 17  1  0  0  0  0
 17 18  2  0  0  0  0
 17 38  1  0  0  0  0
 18 19  1  0  0  0  0
 19 20  2  0  0  0  0
 20 21  1  0  0  0  0
 20 39  1  0  0  0  0
 21 22  1  0  0  0  0
 22 23  1  0  0  0  0
 23 24  1  0  0  0  0
 23 40  1  0  0  0  0
 23 41  1  0  0  0  0
 24 25  1  0  0  0  0
 24 42  1  0  0  0  0
 24 43  1  0  0  0  0
 25 26  1  0  0  0  0
 25 29  1  0  0  0  0
 26 27  2  0  0  0  0
 26 44  1  0  0  0  0
 27 28  1  0  0  0  0
 27 45  1  0  0  0  0
 28 29  2  0  0  0  0
M  END
$$$$
