CHEMBL4282231
 OpenBabel04072215383D

 49 53  0  0  0  0  0  0  0  0999 V2000
    2.5000   -0.1861    0.3385 C   0  0  0  0  0  0  0  0  0  0  0  0
    1.0099   -0.0493    0.2331 C   0  0  0  0  0  0  0  0  0  0  0  0
    0.3816   -0.0103   -1.0164 C   0  0  0  0  0  0  0  0  0  0  0  0
   -1.0100    0.0749   -1.1094 C   0  0  0  0  0  0  0  0  0  0  0  0
   -1.7947    0.1384    0.0506 C   0  0  0  0  0  0  0  0  0  0  0  0
   -3.3032    0.1265   -0.0125 C   0  0  0  0  0  0  0  0  0  0  0  0
   -3.8966   -0.4465    0.9942 N   0  0  0  0  0  0  0  0  0  0  0  0
   -5.2738   -0.6682    0.9530 C   0  0  0  0  0  0  0  0  0  0  0  0
   -6.0937   -1.0118   -0.1445 C   0  0  0  0  0  0  0  0  0  0  0  0
   -7.3349   -1.3078    0.2488 N   0  0  0  0  0  0  0  0  0  0  0  0
   -7.3024   -1.1104    1.5787 N   0  0  0  0  0  0  0  0  0  0  0  0
   -6.0814   -0.7164    2.0606 C   0  0  0  0  0  0  0  0  0  0  0  0
   -5.8260   -0.4423    3.4843 C   0  0  0  0  0  0  0  0  0  0  0  0
   -5.7037   -0.9410   -1.4338 N   0  0  0  0  0  0  0  0  0  0  0  0
   -5.0215    0.1994   -1.8832 C   0  0  0  0  0  0  0  0  0  0  0  0
   -5.5408    0.7728   -2.9877 N   0  0  0  0  0  0  0  0  0  0  0  0
   -5.0405    1.9421   -3.4161 C   0  0  0  0  0  0  0  0  0  0  0  0
   -5.5889    2.5111   -4.5383 N   0  0  0  0  0  0  0  0  0  0  0  0
   -5.0238    3.7404   -5.0951 C   0  0  0  0  0  0  0  0  0  0  0  0
   -5.9586    4.9345   -4.8621 C   0  0  0  0  0  0  0  0  0  0  0  0
   -7.2914    4.6588   -5.3235 O   0  0  0  0  0  0  0  0  0  0  0  0
   -7.8349    3.5383   -4.6075 C   0  0  0  0  0  0  0  0  0  0  0  0
   -7.0040    2.2641   -4.8337 C   0  0  0  0  0  0  0  0  0  0  0  0
   -4.0185    2.5478   -2.7987 N   0  0  0  0  0  0  0  0  0  0  0  0
   -3.5040    1.9477   -1.7050 C   0  0  0  0  0  0  0  0  0  0  0  0
   -3.9544    0.7485   -1.2008 C   0  0  0  0  0  0  0  0  0  0  0  0
   -1.1642    0.1115    1.3009 C   0  0  0  0  0  0  0  0  0  0  0  0
    0.2278    0.0238    1.3912 C   0  0  0  0  0  0  0  0  0  0  0  0
    2.9603   -0.3103   -0.6475 H   0  0  0  0  0  0  0  0  0  0  0  0
    2.7565   -1.0674    0.9353 H   0  0  0  0  0  0  0  0  0  0  0  0
    2.9298    0.7054    0.8047 H   0  0  0  0  0  0  0  0  0  0  0  0
    0.9711   -0.0726   -1.9290 H   0  0  0  0  0  0  0  0  0  0  0  0
   -1.4575    0.0548   -2.1001 H   0  0  0  0  0  0  0  0  0  0  0  0
   -8.1586   -1.2568    2.1030 H   0  0  0  0  0  0  0  0  0  0  0  0
   -6.7454   -0.4967    4.0772 H   0  0  0  0  0  0  0  0  0  0  0  0
   -5.4106    0.5648    3.6072 H   0  0  0  0  0  0  0  0  0  0  0  0
   -5.1113   -1.1610    3.8955 H   0  0  0  0  0  0  0  0  0  0  0  0
   -6.4521   -1.1220   -2.0955 H   0  0  0  0  0  0  0  0  0  0  0  0
   -4.9116    3.5860   -6.1747 H   0  0  0  0  0  0  0  0  0  0  0  0
   -4.0243    3.9763   -4.7129 H   0  0  0  0  0  0  0  0  0  0  0  0
   -5.5915    5.8022   -5.4199 H   0  0  0  0  0  0  0  0  0  0  0  0
   -5.9992    5.2114   -3.8025 H   0  0  0  0  0  0  0  0  0  0  0  0
   -8.8575    3.3819   -4.9659 H   0  0  0  0  0  0  0  0  0  0  0  0
   -7.8918    3.7933   -3.5424 H   0  0  0  0  0  0  0  0  0  0  0  0
   -7.0799    1.9686   -5.8862 H   0  0  0  0  0  0  0  0  0  0  0  0
   -7.4443    1.4525   -4.2429 H   0  0  0  0  0  0  0  0  0  0  0  0
   -2.6881    2.4948   -1.2411 H   0  0  0  0  0  0  0  0  0  0  0  0
   -1.7540    0.1350    2.2153 H   0  0  0  0  0  0  0  0  0  0  0  0
    0.6957   -0.0101    2.3729 H   0  0  0  0  0  0  0  0  0  0  0  0
  1  2  1  0  0  0  0
  1 29  1  0  0  0  0
  1 30  1  0  0  0  0
  1 31  1  0  0  0  0
  2  3  1  0  0  0  0
  2 28  2  0  0  0  0
  3  4  2  0  0  0  0
  3 32  1  0  0  0  0
  4  5  1  0  0  0  0
  4 33  1  0  0  0  0
  5  6  1  0  0  0  0
  5 27  2  0  0  0  0
  6  7  2  0  0  0  0
  6 26  1  0  0  0  0
  7  8  1  0  0  0  0
  8  9  1  0  0  0  0
  8 12  2  0  0  0  0
  9 10  2  0  0  0  0
  9 14  1  0  0  0  0
 10 11  1  0  0  0  0
 11 12  1  0  0  0  0
 11 34  1  0  0  0  0
 12 13  1  0  0  0  0
 13 35  1  0  0  0  0
 13 36  1  0  0  0  0
 13 37  1  0  0  0  0
 14 15  1  0  0  0  0
 14 38  1  0  0  0  0
 15 16  1  0  0  0  0
 15 26  2  0  0  0  0
 16 17  2  0  0  0  0
 17 18  1  0  0  0  0
 17 24  1  0  0  0  0
 18 19  1  0  0  0  0
 18 23  1  0  0  0  0
 19 20  1  0  0  0  0
 19 39  1  0  0  0  0
 19 40  1  0  0  0  0
 20 21  1  0  0  0  0
 20 41  1  0  0  0  0
 20 42  1  0  0  0  0
 21 22  1  0  0  0  0
 22 23  1  0  0  0  0
 22 43  1  0  0  0  0
 22 44  1  0  0  0  0
 23 45  1  0  0  0  0
 23 46  1  0  0  0  0
 24 25  2  0  0  0  0
 25 26  1  0  0  0  0
 25 47  1  0  0  0  0
 27 28  1  0  0  0  0
 27 48  1  0  0  0  0
 28 49  1  0  0  0  0
M  END
$$$$
