CHEMBL3944340
 OpenBabel04072215373D

 70 73  0  0  1  0  0  0  0  0999 V2000
    1.8199    5.0795    2.0519 C   0  0  0  0  0  0  0  0  0  0  0  0
    1.7957    3.7073    1.9436 O   0  0  0  0  0  0  0  0  0  0  0  0
    2.8340    2.8873    1.6307 C   0  0  0  0  0  0  0  0  0  0  0  0
    2.5275    1.5362    1.4315 C   0  0  0  0  0  0  0  0  0  0  0  0
    3.5143    0.6188    1.0590 C   0  0  0  0  0  0  0  0  0  0  0  0
    3.2430   -0.6857    0.7863 O   0  0  0  0  0  0  0  0  0  0  0  0
    1.9889   -1.2611    0.7383 C   0  0  0  0  0  0  0  0  0  0  0  0
    4.8233    1.0632    0.9087 C   0  0  0  0  0  0  0  0  0  0  0  0
    5.1775    2.4163    1.0726 C   0  0  0  0  0  0  0  0  0  0  0  0
    6.4817    2.8570    0.6514 N   0  0  0  0  0  0  0  0  0  0  0  0
    7.0494    2.2736   -0.6226 C   0  0  0  0  0  0  0  0  0  0  0  0
    6.0392    1.8858   -1.7569 C   0  0  0  0  0  0  0  0  0  0  0  0
    6.6743    1.3273   -2.9950 N   0  0  0  0  0  0  0  0  0  0  0  0
    5.6180    0.8618   -3.9184 C   0  0  0  0  0  0  0  0  0  0  0  0
    5.3074   -0.5671   -3.4851 C   0  0  0  0  0  0  0  0  0  0  0  0
    6.7038   -1.1039   -3.3483 C   0  0  0  0  0  0  0  0  0  0  0  0
    7.4846    0.0945   -2.7683 C   0  0  1  0  0  0  0  0  0  0  0  0
    8.8501    0.2348   -3.4718 C   0  0  0  0  0  0  0  0  0  0  0  0
    9.6276   -0.9187   -3.3004 O   0  0  0  0  0  0  0  0  0  0  0  0
    7.4690    3.5800    1.4577 C   0  0  0  0  0  0  0  0  0  0  0  0
    8.2361    4.4856    0.7064 C   0  0  0  0  0  0  0  0  0  0  0  0
    9.4365    4.9255    1.1143 C   0  0  0  0  0  0  0  0  0  0  0  0
    9.9052    4.5985    2.3451 C   0  0  0  0  0  0  0  0  0  0  0  0
   11.1736    4.9131    2.5528 N   0  0  0  0  0  0  0  0  0  0  0  0
   11.7558    4.7582    3.7279 C   0  0  0  0  0  0  0  0  0  0  0  0
   10.9801    4.4454    4.8447 C   0  0  0  0  0  0  0  0  0  0  0  0
   11.5847    5.0393    6.1215 C   0  0  0  0  0  0  0  0  0  0  0  0
   12.7452    5.8497    6.1076 C   0  0  0  0  0  0  0  0  0  0  0  0
   12.9082    6.4550    7.2760 N   0  0  0  0  0  0  0  0  0  0  0  0
   11.9346    6.0679    8.0642 N   0  0  0  0  0  0  0  0  0  0  0  0
   11.7832    6.6682    9.3858 C   0  0  0  0  0  0  0  0  0  0  0  0
   11.1206    5.1746    7.4335 C   0  0  0  0  0  0  0  0  0  0  0  0
    9.6846    3.9452    4.6275 N   0  0  0  0  0  0  0  0  0  0  0  0
    9.1345    3.9520    3.3252 C   0  0  0  0  0  0  0  0  0  0  0  0
    7.8621    3.3740    2.8616 C   0  0  0  0  0  0  0  0  0  0  0  0
    4.1721    3.3354    1.4532 C   0  0  0  0  0  0  0  0  0  0  0  0
   -1.0888    1.7980    0.8257 Cl  0  0  0  0  0  0  0  0  0  0  0  0
    0.8030    5.4304    2.3322 H   0  0  0  0  0  0  0  0  0  0  0  0
    2.0878    5.5391    1.0769 H   0  0  0  0  0  0  0  0  0  0  0  0
    2.5318    5.3892    2.8425 H   0  0  0  0  0  0  0  0  0  0  0  0
    1.5071    1.2081    1.5455 H   0  0  0  0  0  0  0  0  0  0  0  0
    2.0922   -2.3309    0.4624 H   0  0  0  0  0  0  0  0  0  0  0  0
    1.3601   -0.7631   -0.0331 H   0  0  0  0  0  0  0  0  0  0  0  0
    1.4992   -1.1938    1.7310 H   0  0  0  0  0  0  0  0  0  0  0  0
    5.5706    0.3456    0.5920 H   0  0  0  0  0  0  0  0  0  0  0  0
    7.7397    1.4709   -0.3269 H   0  0  0  0  0  0  0  0  0  0  0  0
    7.6816    2.9911   -1.1693 H   0  0  0  0  0  0  0  0  0  0  0  0
    5.4873    2.8114   -2.0380 H   0  0  0  0  0  0  0  0  0  0  0  0
    5.2891    1.1811   -1.4098 H   0  0  0  0  0  0  0  0  0  0  0  0
    6.0357    0.8392   -4.9534 H   0  0  0  0  0  0  0  0  0  0  0  0
    4.7200    1.5164   -3.9405 H   0  0  0  0  0  0  0  0  0  0  0  0
    4.6728   -1.1469   -4.1876 H   0  0  0  0  0  0  0  0  0  0  0  0
    4.8112   -0.5703   -2.4937 H   0  0  0  0  0  0  0  0  0  0  0  0
    7.0472   -1.3132   -4.3862 H   0  0  0  0  0  0  0  0  0  0  0  0
    6.7963   -2.0432   -2.7591 H   0  0  0  0  0  0  0  0  0  0  0  0
    7.6363   -0.0964   -1.6915 H   0  0  0  0  0  0  0  0  0  0  0  0
    9.4022    1.1293   -3.1080 H   0  0  0  0  0  0  0  0  0  0  0  0
    8.6934    0.3884   -4.5643 H   0  0  0  0  0  0  0  0  0  0  0  0
    9.9666   -0.8914   -2.3688 H   0  0  0  0  0  0  0  0  0  0  0  0
    7.9453    4.7779   -0.2869 H   0  0  0  0  0  0  0  0  0  0  0  0
   10.0274    5.5280    0.4484 H   0  0  0  0  0  0  0  0  0  0  0  0
   12.7773    5.0637    3.7482 H   0  0  0  0  0  0  0  0  0  0  0  0
   13.4129    6.1063    5.3033 H   0  0  0  0  0  0  0  0  0  0  0  0
   12.5307    7.4903    9.5064 H   0  0  0  0  0  0  0  0  0  0  0  0
   11.9484    5.9238   10.1817 H   0  0  0  0  0  0  0  0  0  0  0  0
   10.7784    7.1307    9.4624 H   0  0  0  0  0  0  0  0  0  0  0  0
   10.2255    4.7547    7.8698 H   0  0  0  0  0  0  0  0  0  0  0  0
    7.2781    2.7334    3.5191 H   0  0  0  0  0  0  0  0  0  0  0  0
    4.4103    4.3866    1.5397 H   0  0  0  0  0  0  0  0  0  0  0  0
   -0.0102    2.2606    0.1047 H   0  0  0  0  0  0  0  0  0  0  0  0
  1  2  1  0  0  0  0
  1 38  1  0  0  0  0
  1 39  1  0  0  0  0
  1 40  1  0  0  0  0
  2  3  1  0  0  0  0
  3  4  1  0  0  0  0
  3 36  2  0  0  0  0
  4  5  2  0  0  0  0
  4 41  1  0  0  0  0
  5  6  1  0  0  0  0
  5  8  1  0  0  0  0
  6  7  1  0  0  0  0
  7 42  1  0  0  0  0
  7 43  1  0  0  0  0
  7 44  1  0  0  0  0
  8  9  2  0  0  0  0
  8 45  1  0  0  0  0
  9 10  1  0  0  0  0
  9 36  1  0  0  0  0
 10 11  1  0  0  0  0
 10 20  1  0  0  0  0
 11 12  1  0  0  0  0
 11 46  1  0  0  0  0
 11 47  1  0  0  0  0
 12 13  1  0  0  0  0
 12 48  1  0  0  0  0
 12 49  1  0  0  0  0
 13 14  1  0  0  0  0
 13 17  1  0  0  0  0
 14 15  1  0  0  0  0
 14 50  1  0  0  0  0
 14 51  1  0  0  0  0
 15 16  1  0  0  0  0
 15 52  1  0  0  0  0
 15 53  1  0  0  0  0
 16 17  1  0  0  0  0
 16 54  1  0  0  0  0
 16 55  1  0  0  0  0
 17 18  1  0  0  0  0
 17 56  1  1  0  0  0
 18 19  1  0  0  0  0
 18 57  1  0  0  0  0
 18 58  1  0  0  0  0
 19 59  1  0  0  0  0
 20 21  1  0  0  0  0
 20 35  2  0  0  0  0
 21 22  2  0  0  0  0
 21 60  1  0  0  0  0
 22 23  1  0  0  0  0
 22 61  1  0  0  0  0
 23 24  1  0  0  0  0
 23 34  2  0  0  0  0
 24 25  2  0  0  0  0
 25 26  1  0  0  0  0
 25 62  1  0  0  0  0
 26 27  1  0  0  0  0
 26 33  2  0  0  0  0
 27 28  1  0  0  0  0
 27 32  2  0  0  0  0
 28 29  2  0  0  0  0
 28 63  1  0  0  0  0
 29 30  1  0  0  0  0
 30 31  1  0  0  0  0
 30 32  1  0  0  0  0
 31 64  1  0  0  0  0
 31 65  1  0  0  0  0
 31 66  1  0  0  0  0
 32 67  1  0  0  0  0
 33 34  1  0  0  0  0
 34 35  1  0  0  0  0
 35 68  1  0  0  0  0
 36 69  1  0  0  0  0
 37 70  1  0  0  0  0
M  END
$$$$
