CHEMBL484678
 OpenBabel04072215383D

 45 49  0  0  0  0  0  0  0  0999 V2000
   -2.0649    1.4483    1.4351 O   0  0  0  0  0  0  0  0  0  0  0  0
   -1.3910    0.4840    1.1422 C   0  0  0  0  0  0  0  0  0  0  0  0
   -1.7391   -0.8233    1.3943 N   0  0  0  0  0  0  0  0  0  0  0  0
   -0.6960   -1.7587    1.0736 C   0  0  0  0  0  0  0  0  0  0  0  0
    0.3736   -0.8758    0.5292 C   0  0  0  0  0  0  0  0  0  0  0  0
    1.6219   -1.2344    0.0454 C   0  0  0  0  0  0  0  0  0  0  0  0
    2.4475   -0.2298   -0.4511 C   0  0  0  0  0  0  0  0  0  0  0  0
    2.0097    1.1061   -0.4801 C   0  0  0  0  0  0  0  0  0  0  0  0
    0.7412    1.4800    0.0048 C   0  0  0  0  0  0  0  0  0  0  0  0
    0.2986    2.8625   -0.1519 C   0  0  0  0  0  0  0  0  0  0  0  0
    0.6028    3.7623   -1.1478 C   0  0  0  0  0  0  0  0  0  0  0  0
   -0.1651    4.9309   -0.9382 C   0  0  0  0  0  0  0  0  0  0  0  0
   -0.3076    6.1155   -1.6616 C   0  0  0  0  0  0  0  0  0  0  0  0
   -1.1416    7.1242   -1.1717 C   0  0  0  0  0  0  0  0  0  0  0  0
   -1.2647    8.3448   -1.7867 O   0  0  0  0  0  0  0  0  0  0  0  0
   -0.1371    8.6746   -2.6095 C   0  0  0  0  0  0  0  0  0  0  0  0
   -0.0507   10.1521   -2.8572 C   0  0  0  0  0  0  0  0  0  0  0  0
    1.2102   10.7608   -2.9563 C   0  0  0  0  0  0  0  0  0  0  0  0
    1.3148   12.1228   -3.2270 C   0  0  0  0  0  0  0  0  0  0  0  0
    0.1622   12.8823   -3.4109 C   0  0  0  0  0  0  0  0  0  0  0  0
   -1.0944   12.2808   -3.3264 C   0  0  0  0  0  0  0  0  0  0  0  0
   -1.2027   10.9182   -3.0560 C   0  0  0  0  0  0  0  0  0  0  0  0
   -1.8852    6.9204   -0.0082 C   0  0  0  0  0  0  0  0  0  0  0  0
   -1.7788    5.7265    0.7191 C   0  0  0  0  0  0  0  0  0  0  0  0
   -0.9013    4.7541    0.2231 C   0  0  0  0  0  0  0  0  0  0  0  0
   -0.6060    3.4923    0.6798 N   0  0  0  0  0  0  0  0  0  0  0  0
   -0.0445    0.4633    0.5311 C   0  0  0  0  0  0  0  0  0  0  0  0
   -2.6167   -1.0487    1.8418 H   0  0  0  0  0  0  0  0  0  0  0  0
   -1.0736   -2.4610    0.3271 H   0  0  0  0  0  0  0  0  0  0  0  0
   -0.3857   -2.2692    1.9875 H   0  0  0  0  0  0  0  0  0  0  0  0
    1.9522   -2.2685    0.0474 H   0  0  0  0  0  0  0  0  0  0  0  0
    3.4353   -0.4755   -0.8358 H   0  0  0  0  0  0  0  0  0  0  0  0
    2.6801    1.8577   -0.8953 H   0  0  0  0  0  0  0  0  0  0  0  0
    1.2658    3.5915   -1.9882 H   0  0  0  0  0  0  0  0  0  0  0  0
    0.2475    6.2126   -2.5840 H   0  0  0  0  0  0  0  0  0  0  0  0
   -0.2201    8.1681   -3.5810 H   0  0  0  0  0  0  0  0  0  0  0  0
    0.7928    8.3707   -2.1096 H   0  0  0  0  0  0  0  0  0  0  0  0
    2.1171   10.1753   -2.8194 H   0  0  0  0  0  0  0  0  0  0  0  0
    2.2944   12.5868   -3.2943 H   0  0  0  0  0  0  0  0  0  0  0  0
    0.2418   13.9436   -3.6218 H   0  0  0  0  0  0  0  0  0  0  0  0
   -1.9938   12.8743   -3.4717 H   0  0  0  0  0  0  0  0  0  0  0  0
   -2.1848   10.4566   -2.9954 H   0  0  0  0  0  0  0  0  0  0  0  0
   -2.5513    7.7017    0.3533 H   0  0  0  0  0  0  0  0  0  0  0  0
   -2.3510    5.5636    1.6265 H   0  0  0  0  0  0  0  0  0  0  0  0
   -1.0864    3.0413    1.4495 H   0  0  0  0  0  0  0  0  0  0  0  0
  1  2  2  0  0  0  0
  2  3  1  0  0  0  0
  2 27  1  0  0  0  0
  3  4  1  0  0  0  0
  3 28  1  0  0  0  0
  4  5  1  0  0  0  0
  4 29  1  0  0  0  0
  4 30  1  0  0  0  0
  5  6  1  0  0  0  0
  5 27  2  0  0  0  0
  6  7  2  0  0  0  0
  6 31  1  0  0  0  0
  7  8  1  0  0  0  0
  7 32  1  0  0  0  0
  8  9  2  0  0  0  0
  8 33  1  0  0  0  0
  9 10  1  0  0  0  0
  9 27  1  0  0  0  0
 10 11  2  0  0  0  0
 10 26  1  0  0  0  0
 11 12  1  0  0  0  0
 11 34  1  0  0  0  0
 12 13  1  0  0  0  0
 12 25  2  0  0  0  0
 13 14  2  0  0  0  0
 13 35  1  0  0  0  0
 14 15  1  0  0  0  0
 14 23  1  0  0  0  0
 15 16  1  0  0  0  0
 16 17  1  0  0  0  0
 16 36  1  0  0  0  0
 16 37  1  0  0  0  0
 17 18  1  0  0  0  0
 17 22  2  0  0  0  0
 18 19  2  0  0  0  0
 18 38  1  0  0  0  0
 19 20  1  0  0  0  0
 19 39  1  0  0  0  0
 20 21  2  0  0  0  0
 20 40  1  0  0  0  0
 21 22  1  0  0  0  0
 21 41  1  0  0  0  0
 22 42  1  0  0  0  0
 23 24  2  0  0  0  0
 23 43  1  0  0  0  0
 24 25  1  0  0  0  0
 24 44  1  0  0  0  0
 25 26  1  0  0  0  0
 26 45  1  0  0  0  0
M  END
$$$$
