CHEMBL4569077
 OpenBabel04072215383D

 62 66  0  0  0  0  0  0  0  0999 V2000
   -0.3865    2.8993    1.6649 N   0  0  0  0  0  0  0  0  0  0  0  0
    0.6127    2.4280    1.3120 C   0  0  0  0  0  0  0  0  0  0  0  0
    1.8542    1.8599    0.8772 C   0  0  0  0  0  0  0  0  0  0  0  0
    2.9457    1.8087    1.7498 C   0  0  0  0  0  0  0  0  0  0  0  0
    4.1627    1.2693    1.3249 C   0  0  0  0  0  0  0  0  0  0  0  0
    4.3022    0.7723    0.0235 C   0  0  0  0  0  0  0  0  0  0  0  0
    5.6014    0.1458   -0.4324 C   0  0  0  0  0  0  0  0  0  0  0  0
    5.6083   -1.2796   -0.2175 N   0  0  0  0  0  0  0  0  0  0  0  0
    5.0053   -2.1537   -1.1036 C   0  0  0  0  0  0  0  0  0  0  0  0
    4.4641   -1.8506   -2.1452 O   0  0  0  0  0  0  0  0  0  0  0  0
    5.1555   -3.5695   -0.4778 C   0  0  0  0  0  0  0  0  0  0  0  0
    4.8619   -4.7504   -0.9514 N   0  0  0  0  0  0  0  0  0  0  0  0
    4.3854   -4.9194   -2.2720 C   0  0  0  0  0  0  0  0  0  0  0  0
    4.9290   -4.2137   -3.3305 C   0  0  0  0  0  0  0  0  0  0  0  0
    4.3687   -4.2515   -4.6013 C   0  0  0  0  0  0  0  0  0  0  0  0
    3.3486   -5.1383   -4.9281 C   0  0  0  0  0  0  0  0  0  0  0  0
    2.7868   -5.1850   -6.2333 N   0  0  0  0  0  0  0  0  0  0  0  0
    3.1610   -4.3396   -7.2752 C   0  0  0  0  0  0  0  0  0  0  0  0
    4.0382   -3.4813   -7.2137 O   0  0  0  0  0  0  0  0  0  0  0  0
    2.4317   -4.5218   -8.4520 N   0  0  0  0  0  0  0  0  0  0  0  0
    2.7759   -3.6805   -9.5513 C   0  0  0  0  0  0  0  0  0  0  0  0
    4.1074   -3.6238   -9.9977 C   0  0  0  0  0  0  0  0  0  0  0  0
    4.5059   -2.6787  -10.9385 C   0  0  0  0  0  0  0  0  0  0  0  0
    3.5617   -1.7895  -11.4457 C   0  0  0  0  0  0  0  0  0  0  0  0
    4.0772   -0.5764  -12.6205 S   0  0  0  0  0  0  0  0  0  0  0  0
    3.8373   -1.4301  -14.0403 N   0  0  0  0  0  0  0  0  0  0  0  0
    3.1314    0.5115  -12.6338 O   0  0  0  0  0  0  0  0  0  0  0  0
    5.5141   -0.3795  -12.5186 O   0  0  0  0  0  0  0  0  0  0  0  0
    2.2223   -1.8534  -11.0406 C   0  0  0  0  0  0  0  0  0  0  0  0
    1.8242   -2.8198  -10.1077 C   0  0  0  0  0  0  0  0  0  0  0  0
    2.9034   -5.9950   -3.9170 C   0  0  0  0  0  0  0  0  0  0  0  0
    3.4067   -5.8703   -2.5944 C   0  0  0  0  0  0  0  0  0  0  0  0
    5.7873   -3.3231    0.8301 C   0  0  0  0  0  0  0  0  0  0  0  0
    6.1378   -4.2051    1.8354 C   0  0  0  0  0  0  0  0  0  0  0  0
    6.7721   -3.6783    2.9678 C   0  0  0  0  0  0  0  0  0  0  0  0
    7.0491   -2.3013    3.0624 C   0  0  0  0  0  0  0  0  0  0  0  0
    6.6912   -1.4254    2.0331 C   0  0  0  0  0  0  0  0  0  0  0  0
    6.0553   -1.9530    0.9235 C   0  0  0  0  0  0  0  0  0  0  0  0
    3.1955    0.8147   -0.8409 C   0  0  0  0  0  0  0  0  0  0  0  0
    1.9804    1.3580   -0.4192 C   0  0  0  0  0  0  0  0  0  0  0  0
    2.8562    2.1868    2.7662 H   0  0  0  0  0  0  0  0  0  0  0  0
    4.9978    1.2386    2.0198 H   0  0  0  0  0  0  0  0  0  0  0  0
    6.4640    0.6163    0.0513 H   0  0  0  0  0  0  0  0  0  0  0  0
    5.7224    0.3344   -1.5082 H   0  0  0  0  0  0  0  0  0  0  0  0
    5.7658   -3.5398   -3.1859 H   0  0  0  0  0  0  0  0  0  0  0  0
    4.7825   -3.5329   -5.2956 H   0  0  0  0  0  0  0  0  0  0  0  0
    2.0809   -5.8807   -6.4220 H   0  0  0  0  0  0  0  0  0  0  0  0
    1.4463   -4.6850   -8.3090 H   0  0  0  0  0  0  0  0  0  0  0  0
    4.8568   -4.2875   -9.5722 H   0  0  0  0  0  0  0  0  0  0  0  0
    5.5475   -2.6294  -11.2476 H   0  0  0  0  0  0  0  0  0  0  0  0
    3.1326   -0.9737  -14.6166 H   0  0  0  0  0  0  0  0  0  0  0  0
    4.7267   -1.6205  -14.4979 H   0  0  0  0  0  0  0  0  0  0  0  0
    1.4969   -1.1417  -11.4295 H   0  0  0  0  0  0  0  0  0  0  0  0
    0.7957   -2.8230   -9.7603 H   0  0  0  0  0  0  0  0  0  0  0  0
    2.1609   -6.7611   -4.1220 H   0  0  0  0  0  0  0  0  0  0  0  0
    3.0332   -6.5334   -1.8176 H   0  0  0  0  0  0  0  0  0  0  0  0
    5.9335   -5.2672    1.7471 H   0  0  0  0  0  0  0  0  0  0  0  0
    7.0638   -4.3380    3.7815 H   0  0  0  0  0  0  0  0  0  0  0  0
    7.5549   -1.9150    3.9469 H   0  0  0  0  0  0  0  0  0  0  0  0
    6.9313   -0.3703    2.1169 H   0  0  0  0  0  0  0  0  0  0  0  0
    3.2701    0.4127   -1.8518 H   0  0  0  0  0  0  0  0  0  0  0  0
    1.1391    1.3804   -1.1097 H   0  0  0  0  0  0  0  0  0  0  0  0
  1  2  3  0  0  0  0
  2  3  1  0  0  0  0
  3  4  1  0  0  0  0
  3 40  2  0  0  0  0
  4  5  2  0  0  0  0
  4 41  1  0  0  0  0
  5  6  1  0  0  0  0
  5 42  1  0  0  0  0
  6  7  1  0  0  0  0
  6 39  2  0  0  0  0
  7  8  1  0  0  0  0
  7 43  1  0  0  0  0
  7 44  1  0  0  0  0
  8  9  1  0  0  0  0
  8 38  1  0  0  0  0
  9 10  2  0  0  0  0
  9 11  1  0  0  0  0
 11 12  2  0  0  0  0
 11 33  1  0  0  0  0
 12 13  1  0  0  0  0
 13 14  1  0  0  0  0
 13 32  2  0  0  0  0
 14 15  2  0  0  0  0
 14 45  1  0  0  0  0
 15 16  1  0  0  0  0
 15 46  1  0  0  0  0
 16 17  1  0  0  0  0
 16 31  2  0  0  0  0
 17 18  1  0  0  0  0
 17 47  1  0  0  0  0
 18 19  2  0  0  0  0
 18 20  1  0  0  0  0
 20 21  1  0  0  0  0
 20 48  1  0  0  0  0
 21 22  1  0  0  0  0
 21 30  2  0  0  0  0
 22 23  2  0  0  0  0
 22 49  1  0  0  0  0
 23 24  1  0  0  0  0
 23 50  1  0  0  0  0
 24 25  1  0  0  0  0
 24 29  2  0  0  0  0
 25 26  1  0  0  0  0
 25 27  2  0  0  0  0
 25 28  2  0  0  0  0
 26 51  1  0  0  0  0
 26 52  1  0  0  0  0
 29 30  1  0  0  0  0
 29 53  1  0  0  0  0
 30 54  1  0  0  0  0
 31 32  1  0  0  0  0
 31 55  1  0  0  0  0
 32 56  1  0  0  0  0
 33 34  1  0  0  0  0
 33 38  2  0  0  0  0
 34 35  2  0  0  0  0
 34 57  1  0  0  0  0
 35 36  1  0  0  0  0
 35 58  1  0  0  0  0
 36 37  2  0  0  0  0
 36 59  1  0  0  0  0
 37 38  1  0  0  0  0
 37 60  1  0  0  0  0
 39 40  1  0  0  0  0
 39 61  1  0  0  0  0
 40 62  1  0  0  0  0
M  END
$$$$
