CHEMBL603198
 OpenBabel04072215383D

 44 47  0  0  1  0  0  0  0  0999 V2000
    1.9654   -1.6727    0.8453 C   0  0  0  0  0  0  0  0  0  0  0  0
    3.0151   -0.7633    0.5068 O   0  0  0  0  0  0  0  0  0  0  0  0
    3.2918    0.2303    1.4052 C   0  0  0  0  0  0  0  0  0  0  0  0
    2.9304    0.1094    2.7633 C   0  0  0  0  0  0  0  0  0  0  0  0
    3.2656    1.0862    3.6980 C   0  0  0  0  0  0  0  0  0  0  0  0
    3.9867    2.1957    3.2910 C   0  0  0  0  0  0  0  0  0  0  0  0
    4.3433    2.3299    1.9462 C   0  0  0  0  0  0  0  0  0  0  0  0
    3.9999    1.3669    0.9602 C   0  0  0  0  0  0  0  0  0  0  0  0
    4.5196    1.6613   -0.4570 C   0  0  3  0  0  0  0  0  0  0  0  0
    5.9680    1.1674   -0.7331 C   0  0  0  0  0  0  0  0  0  0  0  0
    6.2064   -0.3044   -0.7547 C   0  0  0  0  0  0  0  0  0  0  0  0
    5.3434   -1.3048   -1.1536 C   0  0  0  0  0  0  0  0  0  0  0  0
    5.8515   -2.5309   -0.8784 O   0  0  0  0  0  0  0  0  0  0  0  0
    7.0856   -2.3372   -0.3439 C   0  0  0  0  0  0  0  0  0  0  0  0
    7.8495   -3.3431    0.0950 N   0  0  0  0  0  0  0  0  0  0  0  0
    9.0191   -2.9165    0.5616 C   0  0  0  0  0  0  0  0  0  0  0  0
    9.8435   -3.8606    1.1432 N   0  0  0  0  0  0  0  0  0  0  0  0
    9.4963   -1.6651    0.4980 N   0  0  0  0  0  0  0  0  0  0  0  0
    8.7106   -0.6776    0.0202 C   0  0  0  0  0  0  0  0  0  0  0  0
    9.2900    0.5691   -0.0978 N   0  0  0  0  0  0  0  0  0  0  0  0
    7.3977   -0.9898   -0.3564 C   0  0  0  0  0  0  0  0  0  0  0  0
    3.6275    1.5220   -1.6786 C   0  0  0  0  0  0  0  0  0  0  0  0
    2.3887    2.3857   -1.7795 C   0  0  0  0  0  0  0  0  0  0  0  0
    2.2616    0.8958   -1.8221 C   0  0  0  0  0  0  0  0  0  0  0  0
    1.7584   -2.2893   -0.0360 H   0  0  0  0  0  0  0  0  0  0  0  0
    1.0451   -1.1373    1.0973 H   0  0  0  0  0  0  0  0  0  0  0  0
    2.2649   -2.3474    1.6526 H   0  0  0  0  0  0  0  0  0  0  0  0
    2.3974   -0.7598    3.1361 H   0  0  0  0  0  0  0  0  0  0  0  0
    2.9802    0.9684    4.7392 H   0  0  0  0  0  0  0  0  0  0  0  0
    4.2704    2.9568    4.0098 H   0  0  0  0  0  0  0  0  0  0  0  0
    4.9242    3.2093    1.6686 H   0  0  0  0  0  0  0  0  0  0  0  0
    4.6559    2.7563   -0.4511 H   0  0  0  0  0  0  0  0  0  0  0  0
    6.6147    1.6119    0.0344 H   0  0  0  0  0  0  0  0  0  0  0  0
    6.3170    1.5761   -1.6915 H   0  0  0  0  0  0  0  0  0  0  0  0
    4.3448   -1.3074   -1.5679 H   0  0  0  0  0  0  0  0  0  0  0  0
    9.6061   -4.7819    0.8043 H   0  0  0  0  0  0  0  0  0  0  0  0
   10.8065   -3.5648    1.0782 H   0  0  0  0  0  0  0  0  0  0  0  0
   10.1645    0.6692    0.4007 H   0  0  0  0  0  0  0  0  0  0  0  0
    8.7236    1.3814   -0.2675 H   0  0  0  0  0  0  0  0  0  0  0  0
    4.2375    1.5257   -2.5820 H   0  0  0  0  0  0  0  0  0  0  0  0
    2.2219    2.9371   -2.6978 H   0  0  0  0  0  0  0  0  0  0  0  0
    2.0217    2.8864   -0.8894 H   0  0  0  0  0  0  0  0  0  0  0  0
    2.0455    0.4229   -2.7749 H   0  0  0  0  0  0  0  0  0  0  0  0
    1.7412    0.4437   -0.9949 H   0  0  0  0  0  0  0  0  0  0  0  0
  1  2  1  0  0  0  0
  1 25  1  0  0  0  0
  1 26  1  0  0  0  0
  1 27  1  0  0  0  0
  2  3  1  0  0  0  0
  3  4  1  0  0  0  0
  3  8  2  0  0  0  0
  4  5  2  0  0  0  0
  4 28  1  0  0  0  0
  5  6  1  0  0  0  0
  5 29  1  0  0  0  0
  6  7  2  0  0  0  0
  6 30  1  0  0  0  0
  7  8  1  0  0  0  0
  7 31  1  0  0  0  0
  8  9  1  0  0  0  0
  9 10  1  0  0  0  0
  9 22  1  0  0  0  0
  9 32  1  0  0  0  0
 10 11  1  0  0  0  0
 10 33  1  0  0  0  0
 10 34  1  0  0  0  0
 11 12  2  0  0  0  0
 11 21  1  0  0  0  0
 12 13  1  0  0  0  0
 12 35  1  0  0  0  0
 13 14  1  0  0  0  0
 14 15  1  0  0  0  0
 14 21  2  0  0  0  0
 15 16  2  0  0  0  0
 16 17  1  0  0  0  0
 16 18  1  0  0  0  0
 17 36  1  0  0  0  0
 17 37  1  0  0  0  0
 18 19  2  0  0  0  0
 19 20  1  0  0  0  0
 19 21  1  0  0  0  0
 20 38  1  0  0  0  0
 20 39  1  0  0  0  0
 22 23  1  0  0  0  0
 22 24  1  0  0  0  0
 22 40  1  0  0  0  0
 23 24  1  0  0  0  0
 23 41  1  0  0  0  0
 23 42  1  0  0  0  0
 24 43  1  0  0  0  0
 24 44  1  0  0  0  0
M  END
$$$$
