CHEMBL2063318
 OpenBabel04072215363D

 65 69  0  0  0  0  0  0  0  0999 V2000
    2.4238   -0.4606   -0.1147 C   0  0  0  0  0  0  0  0  0  0  0  0
    1.0577    0.0081   -0.3360 N   0  0  0  0  0  0  0  0  0  0  0  0
    0.1451   -1.1349   -0.5734 C   0  0  0  0  0  0  0  0  0  0  0  0
   -1.3315   -0.6986   -0.7530 C   0  0  0  0  0  0  0  0  0  0  0  0
   -1.7442    0.0829    0.4246 N   0  0  0  0  0  0  0  0  0  0  0  0
   -3.0265    0.0488    0.9284 C   0  0  0  0  0  0  0  0  0  0  0  0
   -3.2567    0.3609    2.2789 C   0  0  0  0  0  0  0  0  0  0  0  0
   -4.5260    0.2854    2.8597 C   0  0  0  0  0  0  0  0  0  0  0  0
   -5.6099   -0.1156    2.0831 C   0  0  0  0  0  0  0  0  0  0  0  0
   -6.9839   -0.1999    2.6240 C   0  0  0  0  0  0  0  0  0  0  0  0
   -7.9505   -0.1125    1.8810 O   0  0  0  0  0  0  0  0  0  0  0  0
   -7.1451   -0.3862    4.0465 N   0  0  0  0  0  0  0  0  0  0  0  0
   -8.3955   -0.5043    4.6472 C   0  0  0  0  0  0  0  0  0  0  0  0
   -9.6103   -0.7026    4.0447 C   0  0  0  0  0  0  0  0  0  0  0  0
  -10.5784   -0.7719    5.0839 C   0  0  0  0  0  0  0  0  0  0  0  0
  -12.0179   -1.0067    4.9176 C   0  0  0  0  0  0  0  0  0  0  0  0
  -12.5284   -1.3156    3.6499 C   0  0  0  0  0  0  0  0  0  0  0  0
  -13.8880   -1.5602    3.4521 C   0  0  0  0  0  0  0  0  0  0  0  0
  -14.7814   -1.5010    4.5160 C   0  0  0  0  0  0  0  0  0  0  0  0
  -16.1637   -1.7105    4.3592 N   0  0  0  0  0  0  0  0  0  0  0  0
  -16.8456   -1.9201    3.1797 C   0  0  0  0  0  0  0  0  0  0  0  0
  -16.3774   -2.1214    2.0666 O   0  0  0  0  0  0  0  0  0  0  0  0
  -18.2050   -1.7931    3.4263 O   0  0  0  0  0  0  0  0  0  0  0  0
  -18.8359   -0.9513    2.4993 C   0  0  0  0  0  0  0  0  0  0  0  0
  -20.0668   -1.3420    1.9799 C   0  0  0  0  0  0  0  0  0  0  0  0
  -20.7607   -0.4620    1.1400 C   0  0  0  0  0  0  0  0  0  0  0  0
  -20.2233    0.7897    0.8378 C   0  0  0  0  0  0  0  0  0  0  0  0
  -18.9941    1.1764    1.3681 C   0  0  0  0  0  0  0  0  0  0  0  0
  -18.3039    0.3099    2.2098 C   0  0  0  0  0  0  0  0  0  0  0  0
  -14.2881   -1.1856    5.7881 C   0  0  0  0  0  0  0  0  0  0  0  0
  -12.9166   -0.9424    5.9887 C   0  0  0  0  0  0  0  0  0  0  0  0
   -9.9835   -0.6085    6.2774 N   0  0  0  0  0  0  0  0  0  0  0  0
   -8.6761   -0.4726    5.9874 N   0  0  0  0  0  0  0  0  0  0  0  0
   -5.4121   -0.4198    0.7312 C   0  0  0  0  0  0  0  0  0  0  0  0
   -4.1327   -0.3458    0.1686 C   0  0  0  0  0  0  0  0  0  0  0  0
   -0.8814    1.2558    0.6657 C   0  0  0  0  0  0  0  0  0  0  0  0
    0.5819    0.7871    0.8297 C   0  0  0  0  0  0  0  0  0  0  0  0
    2.7872   -1.0071   -0.9915 H   0  0  0  0  0  0  0  0  0  0  0  0
    2.5026   -1.1174    0.7592 H   0  0  0  0  0  0  0  0  0  0  0  0
    3.0997    0.3891    0.0312 H   0  0  0  0  0  0  0  0  0  0  0  0
    0.1970   -1.8364    0.2714 H   0  0  0  0  0  0  0  0  0  0  0  0
    0.4588   -1.6788   -1.4717 H   0  0  0  0  0  0  0  0  0  0  0  0
   -1.9360   -1.6058   -0.8669 H   0  0  0  0  0  0  0  0  0  0  0  0
   -1.4434   -0.0980   -1.6647 H   0  0  0  0  0  0  0  0  0  0  0  0
   -2.4169    0.6380    2.9135 H   0  0  0  0  0  0  0  0  0  0  0  0
   -4.6234    0.5676    3.9016 H   0  0  0  0  0  0  0  0  0  0  0  0
   -6.3294   -0.4502    4.6377 H   0  0  0  0  0  0  0  0  0  0  0  0
   -9.8005   -0.8119    2.9886 H   0  0  0  0  0  0  0  0  0  0  0  0
  -11.8881   -1.3814    2.7753 H   0  0  0  0  0  0  0  0  0  0  0  0
  -14.2051   -1.7916    2.4404 H   0  0  0  0  0  0  0  0  0  0  0  0
  -16.7619   -1.5749    5.1648 H   0  0  0  0  0  0  0  0  0  0  0  0
  -20.4920   -2.3111    2.2192 H   0  0  0  0  0  0  0  0  0  0  0  0
  -21.7217   -0.7522    0.7227 H   0  0  0  0  0  0  0  0  0  0  0  0
  -20.7663    1.4734    0.1870 H   0  0  0  0  0  0  0  0  0  0  0  0
  -18.5762    2.1527    1.1374 H   0  0  0  0  0  0  0  0  0  0  0  0
  -17.3543    0.6262    2.6324 H   0  0  0  0  0  0  0  0  0  0  0  0
  -14.9564   -1.1182    6.6435 H   0  0  0  0  0  0  0  0  0  0  0  0
  -12.5608   -0.7018    6.9892 H   0  0  0  0  0  0  0  0  0  0  0  0
   -8.0360   -0.3362    6.7607 H   0  0  0  0  0  0  0  0  0  0  0  0
   -6.2483   -0.7179    0.0992 H   0  0  0  0  0  0  0  0  0  0  0  0
   -4.0226   -0.5812   -0.8887 H   0  0  0  0  0  0  0  0  0  0  0  0
   -1.1694    1.8222    1.5574 H   0  0  0  0  0  0  0  0  0  0  0  0
   -0.9602    1.9468   -0.1842 H   0  0  0  0  0  0  0  0  0  0  0  0
    0.6543    0.1829    1.7448 H   0  0  0  0  0  0  0  0  0  0  0  0
    1.2157    1.6708    0.9668 H   0  0  0  0  0  0  0  0  0  0  0  0
  1  2  1  0  0  0  0
  1 38  1  0  0  0  0
  1 39  1  0  0  0  0
  1 40  1  0  0  0  0
  2  3  1  0  0  0  0
  2 37  1  0  0  0  0
  3  4  1  0  0  0  0
  3 41  1  0  0  0  0
  3 42  1  0  0  0  0
  4  5  1  0  0  0  0
  4 43  1  0  0  0  0
  4 44  1  0  0  0  0
  5  6  1  0  0  0  0
  5 36  1  0  0  0  0
  6  7  1  0  0  0  0
  6 35  2  0  0  0  0
  7  8  2  0  0  0  0
  7 45  1  0  0  0  0
  8  9  1  0  0  0  0
  8 46  1  0  0  0  0
  9 10  1  0  0  0  0
  9 34  2  0  0  0  0
 10 11  2  0  0  0  0
 10 12  1  0  0  0  0
 12 13  1  0  0  0  0
 12 47  1  0  0  0  0
 13 14  2  0  0  0  0
 13 33  1  0  0  0  0
 14 15  1  0  0  0  0
 14 48  1  0  0  0  0
 15 16  1  0  0  0  0
 15 32  2  0  0  0  0
 16 17  1  0  0  0  0
 16 31  2  0  0  0  0
 17 18  2  0  0  0  0
 17 49  1  0  0  0  0
 18 19  1  0  0  0  0
 18 50  1  0  0  0  0
 19 20  1  0  0  0  0
 19 30  2  0  0  0  0
 20 21  1  0  0  0  0
 20 51  1  0  0  0  0
 21 22  2  0  0  0  0
 21 23  1  0  0  0  0
 23 24  1  0  0  0  0
 24 25  1  0  0  0  0
 24 29  2  0  0  0  0
 25 26  2  0  0  0  0
 25 52  1  0  0  0  0
 26 27  1  0  0  0  0
 26 53  1  0  0  0  0
 27 28  2  0  0  0  0
 27 54  1  0  0  0  0
 28 29  1  0  0  0  0
 28 55  1  0  0  0  0
 29 56  1  0  0  0  0
 30 31  1  0  0  0  0
 30 57  1  0  0  0  0
 31 58  1  0  0  0  0
 32 33  1  0  0  0  0
 33 59  1  0  0  0  0
 34 35  1  0  0  0  0
 34 60  1  0  0  0  0
 35 61  1  0  0  0  0
 36 37  1  0  0  0  0
 36 62  1  0  0  0  0
 36 63  1  0  0  0  0
 37 64  1  0  0  0  0
 37 65  1  0  0  0  0
M  END
$$$$
