CHEMBL3938621
 OpenBabel04072215373D

 54 58  0  0  0  0  0  0  0  0999 V2000
    0.9005    0.1721    0.1459 C   0  0  0  0  0  0  0  0  0  0  0  0
    2.3240    0.2946    0.1921 O   0  0  0  0  0  0  0  0  0  0  0  0
    2.8702    0.9186   -0.8992 C   0  0  0  0  0  0  0  0  0  0  0  0
    3.9524    0.2644   -1.5006 C   0  0  0  0  0  0  0  0  0  0  0  0
    4.6058    0.8201   -2.6343 C   0  0  0  0  0  0  0  0  0  0  0  0
    5.6880    0.2562   -3.3449 C   0  0  0  0  0  0  0  0  0  0  0  0
    6.2587   -0.9715   -2.9068 N   0  0  0  0  0  0  0  0  0  0  0  0
    7.4250   -1.6030   -3.4052 C   0  0  0  0  0  0  0  0  0  0  0  0
    8.4951   -0.8904   -3.9635 C   0  0  0  0  0  0  0  0  0  0  0  0
    9.6310   -1.5424   -4.4530 C   0  0  0  0  0  0  0  0  0  0  0  0
    9.7406   -2.9263   -4.3468 C   0  0  0  0  0  0  0  0  0  0  0  0
   11.1583   -3.6741   -4.9886 Cl  0  0  0  0  0  0  0  0  0  0  0  0
    8.7184   -3.6498   -3.7270 C   0  0  0  0  0  0  0  0  0  0  0  0
    8.7994   -5.3638   -3.5159 Cl  0  0  0  0  0  0  0  0  0  0  0  0
    7.5764   -2.9887   -3.2506 C   0  0  0  0  0  0  0  0  0  0  0  0
    6.2163    0.8644   -4.4248 N   0  0  0  0  0  0  0  0  0  0  0  0
    5.6928    2.0319   -4.7957 C   0  0  0  0  0  0  0  0  0  0  0  0
    4.6858    2.6589   -4.1924 N   0  0  0  0  0  0  0  0  0  0  0  0
    4.1585    2.0521   -3.1312 C   0  0  0  0  0  0  0  0  0  0  0  0
    3.1232    2.7084   -2.4916 C   0  0  0  0  0  0  0  0  0  0  0  0
    2.4946    2.1827   -1.3605 C   0  0  0  0  0  0  0  0  0  0  0  0
    1.5280    2.8674   -0.6825 O   0  0  0  0  0  0  0  0  0  0  0  0
    1.6464    4.2933   -0.7017 C   0  0  0  0  0  0  0  0  0  0  0  0
    0.8616    4.8282    0.4544 C   0  0  0  0  0  0  0  0  0  0  0  0
   -0.1515    5.6655    0.3400 N   0  0  0  0  0  0  0  0  0  0  0  0
   -0.6423    5.9495    1.5937 C   0  0  0  0  0  0  0  0  0  0  0  0
    0.0019    5.3284    2.6411 C   0  0  0  0  0  0  0  0  0  0  0  0
    1.2942    4.3903    2.0709 S   0  0  0  0  0  0  0  0  0  0  0  0
   -0.3801    5.4684    4.0774 C   0  0  0  0  0  0  0  0  0  0  0  0
   -1.7679    5.9752    4.2273 N   0  0  0  0  0  0  0  0  0  0  0  0
   -2.7463    4.9043    4.0230 C   0  0  0  0  0  0  0  0  0  0  0  0
   -2.0118    7.1197    3.3122 C   0  0  0  0  0  0  0  0  0  0  0  0
   -1.8346    6.8171    1.8038 C   0  0  0  0  0  0  0  0  0  0  0  0
    0.5925   -0.4405    0.9993 H   0  0  0  0  0  0  0  0  0  0  0  0
    0.5749   -0.3363   -0.7685 H   0  0  0  0  0  0  0  0  0  0  0  0
    0.3866    1.1297    0.2563 H   0  0  0  0  0  0  0  0  0  0  0  0
    4.2838   -0.6811   -1.0779 H   0  0  0  0  0  0  0  0  0  0  0  0
    5.5172   -1.6408   -2.7273 H   0  0  0  0  0  0  0  0  0  0  0  0
    8.4618    0.1934   -4.0385 H   0  0  0  0  0  0  0  0  0  0  0  0
   10.4213   -0.9557   -4.9150 H   0  0  0  0  0  0  0  0  0  0  0  0
    6.7951   -3.5698   -2.7671 H   0  0  0  0  0  0  0  0  0  0  0  0
    6.1286    2.5149   -5.6626 H   0  0  0  0  0  0  0  0  0  0  0  0
    2.8154    3.6655   -2.9054 H   0  0  0  0  0  0  0  0  0  0  0  0
    1.2151    4.6762   -1.6340 H   0  0  0  0  0  0  0  0  0  0  0  0
    2.6900    4.6207   -0.6124 H   0  0  0  0  0  0  0  0  0  0  0  0
    0.3003    6.1858    4.5533 H   0  0  0  0  0  0  0  0  0  0  0  0
   -0.2587    4.5223    4.6190 H   0  0  0  0  0  0  0  0  0  0  0  0
   -2.6182    4.1243    4.7814 H   0  0  0  0  0  0  0  0  0  0  0  0
   -2.6742    4.4288    3.0387 H   0  0  0  0  0  0  0  0  0  0  0  0
   -3.7650    5.2902    4.1382 H   0  0  0  0  0  0  0  0  0  0  0  0
   -1.3146    7.9227    3.5928 H   0  0  0  0  0  0  0  0  0  0  0  0
   -3.0123    7.5298    3.4857 H   0  0  0  0  0  0  0  0  0  0  0  0
   -1.7252    7.7536    1.2472 H   0  0  0  0  0  0  0  0  0  0  0  0
   -2.7230    6.3017    1.4187 H   0  0  0  0  0  0  0  0  0  0  0  0
  1  2  1  0  0  0  0
  1 34  1  0  0  0  0
  1 35  1  0  0  0  0
  1 36  1  0  0  0  0
  2  3  1  0  0  0  0
  3  4  1  0  0  0  0
  3 21  2  0  0  0  0
  4  5  2  0  0  0  0
  4 37  1  0  0  0  0
  5  6  1  0  0  0  0
  5 19  1  0  0  0  0
  6  7  1  0  0  0  0
  6 16  2  0  0  0  0
  7  8  1  0  0  0  0
  7 38  1  0  0  0  0
  8  9  1  0  0  0  0
  8 15  2  0  0  0  0
  9 10  2  0  0  0  0
  9 39  1  0  0  0  0
 10 11  1  0  0  0  0
 10 40  1  0  0  0  0
 11 12  1  0  0  0  0
 11 13  2  0  0  0  0
 13 14  1  0  0  0  0
 13 15  1  0  0  0  0
 15 41  1  0  0  0  0
 16 17  1  0  0  0  0
 17 18  2  0  0  0  0
 17 42  1  0  0  0  0
 18 19  1  0  0  0  0
 19 20  2  0  0  0  0
 20 21  1  0  0  0  0
 20 43  1  0  0  0  0
 21 22  1  0  0  0  0
 22 23  1  0  0  0  0
 23 24  1  0  0  0  0
 23 44  1  0  0  0  0
 23 45  1  0  0  0  0
 24 25  2  0  0  0  0
 24 28  1  0  0  0  0
 25 26  1  0  0  0  0
 26 27  2  0  0  0  0
 26 33  1  0  0  0  0
 27 28  1  0  0  0  0
 27 29  1  0  0  0  0
 29 30  1  0  0  0  0
 29 46  1  0  0  0  0
 29 47  1  0  0  0  0
 30 31  1  0  0  0  0
 30 32  1  0  0  0  0
 31 48  1  0  0  0  0
 31 49  1  0  0  0  0
 31 50  1  0  0  0  0
 32 33  1  0  0  0  0
 32 51  1  0  0  0  0
 32 52  1  0  0  0  0
 33 53  1  0  0  0  0
 33 54  1  0  0  0  0
M  END
$$$$
