CHEMBL205127
 OpenBabel04072215363D

 46 49  0  0  0  0  0  0  0  0999 V2000
    2.1249    0.0258   -0.0135 C   0  0  0  0  0  0  0  0  0  0  0  0
    0.6860   -0.0891    0.0075 N   0  0  0  0  0  0  0  0  0  0  0  0
   -0.1861    0.9612    0.0921 C   0  0  0  0  0  0  0  0  0  0  0  0
   -1.4326    0.5540    0.1810 N   0  0  0  0  0  0  0  0  0  0  0  0
   -1.3589   -0.8021    0.0878 C   0  0  0  0  0  0  0  0  0  0  0  0
   -2.4512   -1.5841    0.1402 N   0  0  0  0  0  0  0  0  0  0  0  0
   -3.6874   -1.1402    0.7398 C   0  0  0  0  0  0  0  0  0  0  0  0
   -4.4097   -2.3469    1.3031 C   0  0  0  0  0  0  0  0  0  0  0  0
   -3.7908   -3.1624    2.2609 C   0  0  0  0  0  0  0  0  0  0  0  0
   -4.4851   -4.2506    2.7661 C   0  0  0  0  0  0  0  0  0  0  0  0
   -5.7383   -4.5788    2.3889 N   0  0  0  0  0  0  0  0  0  0  0  0
   -6.3222   -3.7797    1.4711 C   0  0  0  0  0  0  0  0  0  0  0  0
   -5.7086   -2.6700    0.9044 C   0  0  0  0  0  0  0  0  0  0  0  0
   -0.0604   -1.2463   -0.0163 C   0  0  0  0  0  0  0  0  0  0  0  0
    0.4551   -2.5721   -0.0442 C   0  0  0  0  0  0  0  0  0  0  0  0
    1.7397   -2.8666   -0.0169 N   0  0  0  0  0  0  0  0  0  0  0  0
    1.8314   -4.2347   -0.0257 N   0  0  0  0  0  0  0  0  0  0  0  0
    0.6044   -4.7011   -0.0585 C   0  0  0  0  0  0  0  0  0  0  0  0
    0.1236   -5.9592   -0.1091 N   0  0  0  0  0  0  0  0  0  0  0  0
    0.9089   -7.1233   -0.0883 C   0  0  0  0  0  0  0  0  0  0  0  0
    2.1611   -7.1732    0.5267 C   0  0  0  0  0  0  0  0  0  0  0  0
    2.9681   -8.3064    0.4340 C   0  0  0  0  0  0  0  0  0  0  0  0
    2.5462   -9.4217   -0.2921 C   0  0  0  0  0  0  0  0  0  0  0  0
    3.6417  -10.7513   -0.3538 Cl  0  0  0  0  0  0  0  0  0  0  0  0
    1.3008   -9.4123   -0.9254 C   0  0  0  0  0  0  0  0  0  0  0  0
    0.7564  -10.5512   -1.7487 C   0  0  0  0  0  0  0  0  0  0  0  0
    1.5656  -11.6296   -1.9103 F   0  0  0  0  0  0  0  0  0  0  0  0
   -0.4032  -11.0399   -1.2232 F   0  0  0  0  0  0  0  0  0  0  0  0
    0.4360  -10.1478   -3.0125 F   0  0  0  0  0  0  0  0  0  0  0  0
    0.4913   -8.2545   -0.8056 C   0  0  0  0  0  0  0  0  0  0  0  0
   -0.3278   -3.7032   -0.0807 O   0  0  0  0  0  0  0  0  0  0  0  0
    2.4086    1.0814   -0.0055 H   0  0  0  0  0  0  0  0  0  0  0  0
    2.5025   -0.4457   -0.9240 H   0  0  0  0  0  0  0  0  0  0  0  0
    2.5266   -0.4626    0.8780 H   0  0  0  0  0  0  0  0  0  0  0  0
    0.1398    1.9959    0.0960 H   0  0  0  0  0  0  0  0  0  0  0  0
   -2.5352   -2.3722   -0.4903 H   0  0  0  0  0  0  0  0  0  0  0  0
   -4.3031   -0.6310   -0.0099 H   0  0  0  0  0  0  0  0  0  0  0  0
   -3.5143   -0.4382    1.5661 H   0  0  0  0  0  0  0  0  0  0  0  0
   -2.7822   -2.9526    2.6042 H   0  0  0  0  0  0  0  0  0  0  0  0
   -4.0384   -4.9032    3.5107 H   0  0  0  0  0  0  0  0  0  0  0  0
   -7.3344   -4.0611    1.1936 H   0  0  0  0  0  0  0  0  0  0  0  0
   -6.2418   -2.0740    0.1719 H   0  0  0  0  0  0  0  0  0  0  0  0
   -0.8679   -6.0822   -0.2624 H   0  0  0  0  0  0  0  0  0  0  0  0
    2.5351   -6.3260    1.0983 H   0  0  0  0  0  0  0  0  0  0  0  0
    3.9376   -8.3009    0.9286 H   0  0  0  0  0  0  0  0  0  0  0  0
   -0.4711   -8.2348   -1.3203 H   0  0  0  0  0  0  0  0  0  0  0  0
  1  2  1  0  0  0  0
  1 32  1  0  0  0  0
  1 33  1  0  0  0  0
  1 34  1  0  0  0  0
  2  3  1  0  0  0  0
  2 14  1  0  0  0  0
  3  4  2  0  0  0  0
  3 35  1  0  0  0  0
  4  5  1  0  0  0  0
  5  6  1  0  0  0  0
  5 14  2  0  0  0  0
  6  7  1  0  0  0  0
  6 36  1  0  0  0  0
  7  8  1  0  0  0  0
  7 37  1  0  0  0  0
  7 38  1  0  0  0  0
  8  9  1  0  0  0  0
  8 13  2  0  0  0  0
  9 10  2  0  0  0  0
  9 39  1  0  0  0  0
 10 11  1  0  0  0  0
 10 40  1  0  0  0  0
 11 12  2  0  0  0  0
 12 13  1  0  0  0  0
 12 41  1  0  0  0  0
 13 42  1  0  0  0  0
 14 15  1  0  0  0  0
 15 16  2  0  0  0  0
 15 31  1  0  0  0  0
 16 17  1  0  0  0  0
 17 18  2  0  0  0  0
 18 19  1  0  0  0  0
 18 31  1  0  0  0  0
 19 20  1  0  0  0  0
 19 43  1  0  0  0  0
 20 21  1  0  0  0  0
 20 30  2  0  0  0  0
 21 22  2  0  0  0  0
 21 44  1  0  0  0  0
 22 23  1  0  0  0  0
 22 45  1  0  0  0  0
 23 24  1  0  0  0  0
 23 25  2  0  0  0  0
 25 26  1  0  0  0  0
 25 30  1  0  0  0  0
 26 27  1  0  0  0  0
 26 28  1  0  0  0  0
 26 29  1  0  0  0  0
 30 46  1  0  0  0  0
M  END
$$$$
