CHEMBL603469
 OpenBabel04072215383D

 54 61  0  0  1  0  0  0  0  0999 V2000
    0.9484    0.1424   -0.4871 C   0  0  0  0  0  0  0  0  0  0  0  0
    2.4777    0.1754   -0.3993 C   0  0  2  0  0  0  0  0  0  0  0  0
    2.8416   -1.1819    0.0034 O   0  0  0  0  0  0  0  0  0  0  0  0
    4.1709   -1.1393    0.5397 C   0  0  2  0  0  0  0  0  0  0  0  0
    4.3928    0.3071    1.0726 C   0  0  0  0  0  0  0  0  0  0  0  0
    3.0728    1.0410    0.7839 C   0  0  1  0  0  0  0  0  0  0  0  0
    3.2908    2.4278    0.4945 O   0  0  0  0  0  0  0  0  0  0  0  0
    2.2292    1.1384    2.0719 C   0  0  0  0  0  0  0  0  0  0  0  0
    0.9997    1.8314    1.8354 O   0  0  0  0  0  0  0  0  0  0  0  0
    5.0401   -1.5130   -0.5720 N   0  0  0  0  0  0  0  0  0  0  0  0
    6.2136   -2.3114   -0.6094 C   0  0  0  0  0  0  0  0  0  0  0  0
    6.5115   -3.5561   -0.0212 C   0  0  0  0  0  0  0  0  0  0  0  0
    7.7790   -4.1423   -0.2187 C   0  0  0  0  0  0  0  0  0  0  0  0
    8.7705   -3.4961   -0.9468 C   0  0  0  0  0  0  0  0  0  0  0  0
    8.5003   -2.2735   -1.5503 C   0  0  0  0  0  0  0  0  0  0  0  0
    7.2238   -1.6698   -1.4488 C   0  0  0  0  0  0  0  0  0  0  0  0
    6.6362   -0.5132   -1.9998 C   0  0  0  0  0  0  0  0  0  0  0  0
    7.2962    0.5414   -2.6717 C   0  0  0  0  0  0  0  0  0  0  0  0
    6.4673    1.6774   -2.8759 C   0  0  0  0  0  0  0  0  0  0  0  0
    5.1212    1.4736   -2.5243 C   0  0  0  0  0  0  0  0  0  0  0  0
    4.0948    2.4239   -2.4449 C   0  0  0  0  0  0  0  0  0  0  0  0
    3.8743    3.7704   -2.1406 C   0  0  0  0  0  0  0  0  0  0  0  0
    2.5703    4.2631   -2.2811 C   0  0  0  0  0  0  0  0  0  0  0  0
    1.6700    3.5305   -3.0462 C   0  0  0  0  0  0  0  0  0  0  0  0
    1.8668    2.1609   -3.2731 C   0  0  0  0  0  0  0  0  0  0  0  0
    2.9097    1.6242   -2.5078 C   0  0  0  0  0  0  0  0  0  0  0  0
    3.1135    0.4554   -1.7129 N   0  0  0  0  0  0  0  0  0  0  0  0
    4.4651    0.3731   -1.9537 C   0  0  0  0  0  0  0  0  0  0  0  0
    5.3287   -0.6234   -1.5446 C   0  0  0  0  0  0  0  0  0  0  0  0
    7.1625    2.7467   -3.5582 C   0  0  0  0  0  0  0  0  0  0  0  0
    8.4917    2.1628   -3.5584 N   0  0  0  0  0  0  0  0  0  0  0  0
    8.6262    0.8420   -3.1075 C   0  0  0  0  0  0  0  0  0  0  0  0
    9.6660    0.2462   -3.1361 O   0  0  0  0  0  0  0  0  0  0  0  0
    0.5050   -0.1643    0.4706 H   0  0  0  0  0  0  0  0  0  0  0  0
    0.6178   -0.6255   -1.1951 H   0  0  0  0  0  0  0  0  0  0  0  0
    0.5121    1.1005   -0.7776 H   0  0  0  0  0  0  0  0  0  0  0  0
    4.2813   -1.8794    1.3333 H   0  0  0  0  0  0  0  0  0  0  0  0
    5.2441    0.8182    0.6007 H   0  0  0  0  0  0  0  0  0  0  0  0
    4.6439    0.3115    2.1385 H   0  0  0  0  0  0  0  0  0  0  0  0
    4.0674    2.4983   -0.0826 H   0  0  0  0  0  0  0  0  0  0  0  0
    2.7619    1.7558    2.8094 H   0  0  0  0  0  0  0  0  0  0  0  0
    2.0192    0.1698    2.5283 H   0  0  0  0  0  0  0  0  0  0  0  0
    1.2389    2.6201    1.3061 H   0  0  0  0  0  0  0  0  0  0  0  0
    5.7580   -4.1131    0.5353 H   0  0  0  0  0  0  0  0  0  0  0  0
    7.9974   -5.1289    0.1841 H   0  0  0  0  0  0  0  0  0  0  0  0
    9.7466   -3.9478   -1.0802 H   0  0  0  0  0  0  0  0  0  0  0  0
    9.2733   -1.8185   -2.1567 H   0  0  0  0  0  0  0  0  0  0  0  0
    4.6294    4.3585   -1.6292 H   0  0  0  0  0  0  0  0  0  0  0  0
    2.3000    5.2490   -1.9141 H   0  0  0  0  0  0  0  0  0  0  0  0
    0.8931    4.0654   -3.5925 H   0  0  0  0  0  0  0  0  0  0  0  0
    1.8584    1.9301   -4.3541 H   0  0  0  0  0  0  0  0  0  0  0  0
    7.1565    3.6920   -2.9787 H   0  0  0  0  0  0  0  0  0  0  0  0
    6.8216    2.8646   -4.5745 H   0  0  0  0  0  0  0  0  0  0  0  0
    9.3115    2.6225   -3.9316 H   0  0  0  0  0  0  0  0  0  0  0  0
  1 34  1  0  0  0  0
  1 35  1  0  0  0  0
  1 36  1  0  0  0  0
  2  1  1  6  0  0  0
  2  3  1  0  0  0  0
  2  6  1  0  0  0  0
  2 27  1  0  0  0  0
  3  4  1  0  0  0  0
  4  5  1  0  0  0  0
  4 10  1  0  0  0  0
  4 37  1  1  0  0  0
  5  6  1  0  0  0  0
  5 38  1  0  0  0  0
  5 39  1  0  0  0  0
  6  7  1  6  0  0  0
  6  8  1  0  0  0  0
  7 40  1  0  0  0  0
  8  9  1  0  0  0  0
  8 41  1  0  0  0  0
  8 42  1  0  0  0  0
  9 43  1  0  0  0  0
 10 11  1  0  0  0  0
 10 29  1  0  0  0  0
 11 12  1  0  0  0  0
 11 16  2  0  0  0  0
 12 13  2  0  0  0  0
 12 44  1  0  0  0  0
 13 14  1  0  0  0  0
 13 45  1  0  0  0  0
 14 15  2  0  0  0  0
 14 46  1  0  0  0  0
 15 16  1  0  0  0  0
 15 47  1  0  0  0  0
 16 17  1  0  0  0  0
 17 18  1  0  0  0  0
 17 29  2  0  0  0  0
 18 19  2  0  0  0  0
 18 32  1  0  0  0  0
 19 20  1  0  0  0  0
 19 30  1  0  0  0  0
 20 21  1  0  0  0  0
 20 28  2  0  0  0  0
 21 22  1  0  0  0  0
 21 26  2  0  0  0  0
 22 23  2  0  0  0  0
 22 48  1  0  0  0  0
 23 24  1  0  0  0  0
 23 49  1  0  0  0  0
 24 25  2  0  0  0  0
 24 50  1  0  0  0  0
 25 26  1  0  0  0  0
 25 51  1  0  0  0  0
 26 27  1  0  0  0  0
 27 28  1  0  0  0  0
 28 29  1  0  0  0  0
 30 31  1  0  0  0  0
 30 52  1  0  0  0  0
 30 53  1  0  0  0  0
 31 32  1  0  0  0  0
 31 54  1  0  0  0  0
 32 33  2  0  0  0  0
M  END
$$$$
