CHEMBL3983977
 OpenBabel04072215373D

 71 75  0  0  0  0  0  0  0  0999 V2000
    0.7144    1.1836    2.3278 C   0  0  0  0  0  0  0  0  0  0  0  0
    1.4736    1.6180    1.1512 N   0  0  0  0  0  0  0  0  0  0  0  0
    2.4511    0.5857    0.7782 C   0  0  0  0  0  0  0  0  0  0  0  0
    3.2542    0.9988   -0.4529 C   0  0  0  0  0  0  0  0  0  0  0  0
    2.3549    1.3131   -1.6518 C   0  0  0  0  0  0  0  0  0  0  0  0
    1.6726    0.1260   -2.1937 N   0  0  0  0  0  0  0  0  0  0  0  0
    2.3642   -0.9495   -2.7444 C   0  0  0  0  0  0  0  0  0  0  0  0
    1.8056   -2.2325   -2.6465 C   0  0  0  0  0  0  0  0  0  0  0  0
    2.4262   -3.3799   -3.1625 C   0  0  0  0  0  0  0  0  0  0  0  0
    1.9021   -4.6916   -2.9684 N   0  0  0  0  0  0  0  0  0  0  0  0
    0.8701   -5.0129   -2.0991 C   0  0  0  0  0  0  0  0  0  0  0  0
    0.2773   -4.2147   -1.3807 O   0  0  0  0  0  0  0  0  0  0  0  0
    0.5767   -6.3730   -2.0644 N   0  0  0  0  0  0  0  0  0  0  0  0
   -0.4803   -6.8268   -1.2264 C   0  0  0  0  0  0  0  0  0  0  0  0
   -0.2878   -7.9008   -0.3607 C   0  0  0  0  0  0  0  0  0  0  0  0
   -1.3241   -8.2860    0.4994 C   0  0  0  0  0  0  0  0  0  0  0  0
   -2.5429   -7.6199    0.4294 C   0  0  0  0  0  0  0  0  0  0  0  0
   -3.5767   -8.0509    1.2630 O   0  0  0  0  0  0  0  0  0  0  0  0
   -4.8783   -7.8988    0.8071 C   0  0  0  0  0  0  0  0  0  0  0  0
   -5.2159   -8.0414   -0.5360 C   0  0  0  0  0  0  0  0  0  0  0  0
   -6.5274   -7.8418   -0.8941 C   0  0  0  0  0  0  0  0  0  0  0  0
   -7.5045   -7.5801   -0.0103 N   0  0  0  0  0  0  0  0  0  0  0  0
   -7.2023   -7.4969    1.2958 C   0  0  0  0  0  0  0  0  0  0  0  0
   -8.2472   -7.2455    2.2144 N   0  0  0  0  0  0  0  0  0  0  0  0
   -9.5674   -7.0780    1.8370 C   0  0  0  0  0  0  0  0  0  0  0  0
  -10.0250   -7.1269    0.6964 O   0  0  0  0  0  0  0  0  0  0  0  0
  -10.5722   -6.8222    2.9131 C   0  0  0  0  0  0  0  0  0  0  0  0
  -10.3139   -6.5318    4.3635 C   0  0  0  0  0  0  0  0  0  0  0  0
  -10.8310   -7.8819    3.9564 C   0  0  0  0  0  0  0  0  0  0  0  0
   -5.8913   -7.6544    1.7493 C   0  0  0  0  0  0  0  0  0  0  0  0
   -2.7564   -6.5759   -0.3999 N   0  0  0  0  0  0  0  0  0  0  0  0
   -1.7306   -6.2041   -1.2019 C   0  0  0  0  0  0  0  0  0  0  0  0
    3.6039   -3.2111   -3.8983 C   0  0  0  0  0  0  0  0  0  0  0  0
    4.1509   -1.9234   -4.0812 C   0  0  0  0  0  0  0  0  0  0  0  0
    5.3606   -1.6724   -4.9453 C   0  0  0  0  0  0  0  0  0  0  0  0
    5.8766   -2.7997   -5.5077 F   0  0  0  0  0  0  0  0  0  0  0  0
    5.0857   -0.8315   -5.9820 F   0  0  0  0  0  0  0  0  0  0  0  0
    6.3844   -1.0921   -4.2596 F   0  0  0  0  0  0  0  0  0  0  0  0
    3.5358   -0.8124   -3.4762 C   0  0  0  0  0  0  0  0  0  0  0  0
    1.3022    2.3440   -1.2262 C   0  0  0  0  0  0  0  0  0  0  0  0
    0.5574    1.9253    0.0448 C   0  0  0  0  0  0  0  0  0  0  0  0
    1.3856    0.9884    3.1716 H   0  0  0  0  0  0  0  0  0  0  0  0
    0.1371    0.2721    2.1316 H   0  0  0  0  0  0  0  0  0  0  0  0
    0.0205    1.9673    2.6511 H   0  0  0  0  0  0  0  0  0  0  0  0
    1.9606   -0.3793    0.5986 H   0  0  0  0  0  0  0  0  0  0  0  0
    3.1548    0.4393    1.6076 H   0  0  0  0  0  0  0  0  0  0  0  0
    3.9884    0.2218   -0.6916 H   0  0  0  0  0  0  0  0  0  0  0  0
    3.8325    1.9005   -0.2054 H   0  0  0  0  0  0  0  0  0  0  0  0
    2.9586    1.7674   -2.4457 H   0  0  0  0  0  0  0  0  0  0  0  0
    0.8825   -0.1780   -1.6288 H   0  0  0  0  0  0  0  0  0  0  0  0
    0.8461   -2.3061   -2.1473 H   0  0  0  0  0  0  0  0  0  0  0  0
    2.3511   -5.4458   -3.4669 H   0  0  0  0  0  0  0  0  0  0  0  0
    1.3656   -6.9916   -2.1784 H   0  0  0  0  0  0  0  0  0  0  0  0
    0.6740   -8.4005   -0.2960 H   0  0  0  0  0  0  0  0  0  0  0  0
   -1.1797   -9.0926    1.2146 H   0  0  0  0  0  0  0  0  0  0  0  0
   -4.4818   -8.2635   -1.2999 H   0  0  0  0  0  0  0  0  0  0  0  0
   -6.8441   -7.8813   -1.9310 H   0  0  0  0  0  0  0  0  0  0  0  0
   -8.0121   -7.1987    3.1916 H   0  0  0  0  0  0  0  0  0  0  0  0
  -11.4610   -6.3372    2.5051 H   0  0  0  0  0  0  0  0  0  0  0  0
  -11.0112   -5.8637    4.8628 H   0  0  0  0  0  0  0  0  0  0  0  0
   -9.3037   -6.4522    4.7366 H   0  0  0  0  0  0  0  0  0  0  0  0
  -11.8683   -8.1284    4.1593 H   0  0  0  0  0  0  0  0  0  0  0  0
  -10.1594   -8.7299    4.0152 H   0  0  0  0  0  0  0  0  0  0  0  0
   -5.6447   -7.5793    2.8007 H   0  0  0  0  0  0  0  0  0  0  0  0
   -1.9619   -5.3763   -1.8668 H   0  0  0  0  0  0  0  0  0  0  0  0
    4.1097   -4.0680   -4.3388 H   0  0  0  0  0  0  0  0  0  0  0  0
    3.9693    0.1737   -3.6268 H   0  0  0  0  0  0  0  0  0  0  0  0
    0.5803    2.5075   -2.0354 H   0  0  0  0  0  0  0  0  0  0  0  0
    1.8002    3.3057   -1.0454 H   0  0  0  0  0  0  0  0  0  0  0  0
   -0.0923    1.0675   -0.1702 H   0  0  0  0  0  0  0  0  0  0  0  0
   -0.1006    2.7530    0.3377 H   0  0  0  0  0  0  0  0  0  0  0  0
  1  2  1  0  0  0  0
  1 42  1  0  0  0  0
  1 43  1  0  0  0  0
  1 44  1  0  0  0  0
  2  3  1  0  0  0  0
  2 41  1  0  0  0  0
  3  4  1  0  0  0  0
  3 45  1  0  0  0  0
  3 46  1  0  0  0  0
  4  5  1  0  0  0  0
  4 47  1  0  0  0  0
  4 48  1  0  0  0  0
  5  6  1  0  0  0  0
  5 40  1  0  0  0  0
  5 49  1  0  0  0  0
  6  7  1  0  0  0  0
  6 50  1  0  0  0  0
  7  8  1  0  0  0  0
  7 39  2  0  0  0  0
  8  9  2  0  0  0  0
  8 51  1  0  0  0  0
  9 10  1  0  0  0  0
  9 33  1  0  0  0  0
 10 11  1  0  0  0  0
 10 52  1  0  0  0  0
 11 12  2  0  0  0  0
 11 13  1  0  0  0  0
 13 14  1  0  0  0  0
 13 53  1  0  0  0  0
 14 15  1  0  0  0  0
 14 32  2  0  0  0  0
 15 16  2  0  0  0  0
 15 54  1  0  0  0  0
 16 17  1  0  0  0  0
 16 55  1  0  0  0  0
 17 18  1  0  0  0  0
 17 31  2  0  0  0  0
 18 19  1  0  0  0  0
 19 20  1  0  0  0  0
 19 30  2  0  0  0  0
 20 21  2  0  0  0  0
 20 56  1  0  0  0  0
 21 22  1  0  0  0  0
 21 57  1  0  0  0  0
 22 23  2  0  0  0  0
 23 24  1  0  0  0  0
 23 30  1  0  0  0  0
 24 25  1  0  0  0  0
 24 58  1  0  0  0  0
 25 26  2  0  0  0  0
 25 27  1  0  0  0  0
 27 28  1  0  0  0  0
 27 29  1  0  0  0  0
 27 59  1  0  0  0  0
 28 29  1  0  0  0  0
 28 60  1  0  0  0  0
 28 61  1  0  0  0  0
 29 62  1  0  0  0  0
 29 63  1  0  0  0  0
 30 64  1  0  0  0  0
 31 32  1  0  0  0  0
 32 65  1  0  0  0  0
 33 34  2  0  0  0  0
 33 66  1  0  0  0  0
 34 35  1  0  0  0  0
 34 39  1  0  0  0  0
 35 36  1  0  0  0  0
 35 37  1  0  0  0  0
 35 38  1  0  0  0  0
 39 67  1  0  0  0  0
 40 41  1  0  0  0  0
 40 68  1  0  0  0  0
 40 69  1  0  0  0  0
 41 70  1  0  0  0  0
 41 71  1  0  0  0  0
M  END
$$$$
