CHEMBL363130
 OpenBabel04072215373D

 39 41  0  0  0  0  0  0  0  0999 V2000
    2.5113    0.0656    0.3899 C   0  0  0  0  0  0  0  0  0  0  0  0
    1.0304   -0.1211    0.5257 C   0  0  0  0  0  0  0  0  0  0  0  0
    0.1820    0.9429    0.9818 C   0  0  0  0  0  0  0  0  0  0  0  0
   -1.1482    0.6027    0.9917 C   0  0  0  0  0  0  0  0  0  0  0  0
   -1.3968   -1.0007    0.4782 S   0  0  0  0  0  0  0  0  0  0  0  0
    0.2834   -1.2574    0.2118 C   0  0  0  0  0  0  0  0  0  0  0  0
    0.6845   -2.5451   -0.3628 C   0  0  0  0  0  0  0  0  0  0  0  0
   -0.0391   -3.1897   -1.1258 O   0  0  0  0  0  0  0  0  0  0  0  0
    1.9507   -3.1033   -0.1173 N   0  0  0  0  0  0  0  0  0  0  0  0
    2.6792   -2.7732    0.9831 N   0  0  0  0  0  0  0  0  0  0  0  0
    3.8299   -3.3999    0.7611 C   0  0  0  0  0  0  0  0  0  0  0  0
    4.9339   -3.2401    1.5085 N   0  0  0  0  0  0  0  0  0  0  0  0
    6.0537   -4.0814    1.5953 C   0  0  0  0  0  0  0  0  0  0  0  0
    7.3166   -3.5380    1.8683 C   0  0  0  0  0  0  0  0  0  0  0  0
    8.4543   -4.3504    1.8785 C   0  0  0  0  0  0  0  0  0  0  0  0
    8.3214   -5.7189    1.6334 C   0  0  0  0  0  0  0  0  0  0  0  0
    9.7406   -6.7632    1.6523 S   0  0  0  0  0  0  0  0  0  0  0  0
    9.7766   -7.2520    3.2507 N   0  0  0  0  0  0  0  0  0  0  0  0
    9.4720   -7.9533    0.8731 O   0  0  0  0  0  0  0  0  0  0  0  0
   10.9259   -5.9620    1.4496 O   0  0  0  0  0  0  0  0  0  0  0  0
    7.0791   -6.2762    1.3468 C   0  0  0  0  0  0  0  0  0  0  0  0
    5.9564   -5.4553    1.3218 C   0  0  0  0  0  0  0  0  0  0  0  0
    3.8523   -4.1675   -0.3698 N   0  0  0  0  0  0  0  0  0  0  0  0
    2.6792   -3.9750   -0.9119 C   0  0  0  0  0  0  0  0  0  0  0  0
    2.2787   -4.4329   -2.1116 N   0  0  0  0  0  0  0  0  0  0  0  0
    2.7711    1.1267    0.3353 H   0  0  0  0  0  0  0  0  0  0  0  0
    2.8927   -0.4102   -0.5192 H   0  0  0  0  0  0  0  0  0  0  0  0
    3.0322   -0.3387    1.2641 H   0  0  0  0  0  0  0  0  0  0  0  0
    0.5407    1.9255    1.2656 H   0  0  0  0  0  0  0  0  0  0  0  0
   -1.9861    1.2264    1.2687 H   0  0  0  0  0  0  0  0  0  0  0  0
    4.9212   -2.4921    2.1883 H   0  0  0  0  0  0  0  0  0  0  0  0
    7.4282   -2.4691    2.0388 H   0  0  0  0  0  0  0  0  0  0  0  0
    9.4300   -3.9097    2.0666 H   0  0  0  0  0  0  0  0  0  0  0  0
    9.6422   -8.2608    3.3088 H   0  0  0  0  0  0  0  0  0  0  0  0
   10.6290   -6.9138    3.6954 H   0  0  0  0  0  0  0  0  0  0  0  0
    6.9682   -7.3355    1.1358 H   0  0  0  0  0  0  0  0  0  0  0  0
    4.9895   -5.9000    1.0983 H   0  0  0  0  0  0  0  0  0  0  0  0
    2.8531   -5.1244   -2.5817 H   0  0  0  0  0  0  0  0  0  0  0  0
    1.2904   -4.4408   -2.3622 H   0  0  0  0  0  0  0  0  0  0  0  0
  1  2  1  0  0  0  0
  1 26  1  0  0  0  0
  1 27  1  0  0  0  0
  1 28  1  0  0  0  0
  2  3  1  0  0  0  0
  2  6  2  0  0  0  0
  3  4  2  0  0  0  0
  3 29  1  0  0  0  0
  4  5  1  0  0  0  0
  4 30  1  0  0  0  0
  5  6  1  0  0  0  0
  6  7  1  0  0  0  0
  7  8  2  0  0  0  0
  7  9  1  0  0  0  0
  9 10  1  0  0  0  0
  9 24  1  0  0  0  0
 10 11  2  0  0  0  0
 11 12  1  0  0  0  0
 11 23  1  0  0  0  0
 12 13  1  0  0  0  0
 12 31  1  0  0  0  0
 13 14  1  0  0  0  0
 13 22  2  0  0  0  0
 14 15  2  0  0  0  0
 14 32  1  0  0  0  0
 15 16  1  0  0  0  0
 15 33  1  0  0  0  0
 16 17  1  0  0  0  0
 16 21  2  0  0  0  0
 17 18  1  0  0  0  0
 17 19  2  0  0  0  0
 17 20  2  0  0  0  0
 18 34  1  0  0  0  0
 18 35  1  0  0  0  0
 21 22  1  0  0  0  0
 21 36  1  0  0  0  0
 22 37  1  0  0  0  0
 23 24  2  0  0  0  0
 24 25  1  0  0  0  0
 25 38  1  0  0  0  0
 25 39  1  0  0  0  0
M  END
$$$$
