CHEMBL2206667
 OpenBabel04072215363D

 39 42  0  0  0  0  0  0  0  0999 V2000
    1.0507   -0.0429   -0.1524 O   0  0  0  0  0  0  0  0  0  0  0  0
    2.2650    0.0248    0.0048 C   0  0  0  0  0  0  0  0  0  0  0  0
    2.9484    0.9886    0.7241 N   0  0  0  0  0  0  0  0  0  0  0  0
    2.3584    2.0406    1.4630 C   0  0  0  0  0  0  0  0  0  0  0  0
    1.0037    2.0795    1.8064 C   0  0  0  0  0  0  0  0  0  0  0  0
    0.4781    3.1582    2.5220 C   0  0  0  0  0  0  0  0  0  0  0  0
    1.3034    4.2108    2.9047 C   0  0  0  0  0  0  0  0  0  0  0  0
    2.6583    4.1785    2.5815 C   0  0  0  0  0  0  0  0  0  0  0  0
    3.1859    3.0935    1.8728 C   0  0  0  0  0  0  0  0  0  0  0  0
    3.1036   -0.9847   -0.6965 C   0  0  0  0  0  0  0  0  0  0  0  0
    2.6511   -1.4346   -1.9463 C   0  0  0  0  0  0  0  0  0  0  0  0
    3.3263   -2.4483   -2.6212 C   0  0  0  0  0  0  0  0  0  0  0  0
    4.4547   -3.0256   -2.0460 C   0  0  0  0  0  0  0  0  0  0  0  0
    4.9244   -2.5582   -0.8147 C   0  0  0  0  0  0  0  0  0  0  0  0
    6.0095   -3.1869   -0.1613 O   0  0  0  0  0  0  0  0  0  0  0  0
    7.1165   -3.6011   -0.8951 C   0  0  0  0  0  0  0  0  0  0  0  0
    7.8550   -4.6103   -0.1018 C   0  0  0  0  0  0  0  0  0  0  0  0
    8.9377   -5.1473   -0.6790 C   0  0  0  0  0  0  0  0  0  0  0  0
    9.3151   -4.7202   -1.9745 C   0  0  0  0  0  0  0  0  0  0  0  0
   10.3130   -5.0801   -2.7538 N   0  0  0  0  0  0  0  0  0  0  0  0
   10.1591   -4.3380   -3.8998 C   0  0  0  0  0  0  0  0  0  0  0  0
    9.0559   -3.5224   -3.8150 C   0  0  0  0  0  0  0  0  0  0  0  0
    8.5223   -3.7573   -2.5789 N   0  0  0  0  0  0  0  0  0  0  0  0
    7.4097   -3.1600   -2.0746 N   0  0  0  0  0  0  0  0  0  0  0  0
    4.2514   -1.5469   -0.1221 C   0  0  0  0  0  0  0  0  0  0  0  0
    3.9521    1.0332    0.6049 H   0  0  0  0  0  0  0  0  0  0  0  0
    0.3245    1.2750    1.5355 H   0  0  0  0  0  0  0  0  0  0  0  0
   -0.5795    3.1716    2.7757 H   0  0  0  0  0  0  0  0  0  0  0  0
    0.8909    5.0534    3.4528 H   0  0  0  0  0  0  0  0  0  0  0  0
    3.3036    5.0026    2.8745 H   0  0  0  0  0  0  0  0  0  0  0  0
    4.2440    3.0998    1.6257 H   0  0  0  0  0  0  0  0  0  0  0  0
    1.7512   -1.0070   -2.3866 H   0  0  0  0  0  0  0  0  0  0  0  0
    2.9609   -2.8026   -3.5809 H   0  0  0  0  0  0  0  0  0  0  0  0
    4.9470   -3.8447   -2.5625 H   0  0  0  0  0  0  0  0  0  0  0  0
    7.4977   -4.8980    0.8777 H   0  0  0  0  0  0  0  0  0  0  0  0
    9.5334   -5.9087   -0.1886 H   0  0  0  0  0  0  0  0  0  0  0  0
   10.8499   -4.4335   -4.7277 H   0  0  0  0  0  0  0  0  0  0  0  0
    8.6103   -2.8162   -4.4990 H   0  0  0  0  0  0  0  0  0  0  0  0
    4.5905   -1.2498    0.8648 H   0  0  0  0  0  0  0  0  0  0  0  0
  1  2  2  0  0  0  0
  2  3  1  0  0  0  0
  2 10  1  0  0  0  0
  3  4  1  0  0  0  0
  3 26  1  0  0  0  0
  4  5  1  0  0  0  0
  4  9  2  0  0  0  0
  5  6  2  0  0  0  0
  5 27  1  0  0  0  0
  6  7  1  0  0  0  0
  6 28  1  0  0  0  0
  7  8  2  0  0  0  0
  7 29  1  0  0  0  0
  8  9  1  0  0  0  0
  8 30  1  0  0  0  0
  9 31  1  0  0  0  0
 10 11  1  0  0  0  0
 10 25  2  0  0  0  0
 11 12  2  0  0  0  0
 11 32  1  0  0  0  0
 12 13  1  0  0  0  0
 12 33  1  0  0  0  0
 13 14  2  0  0  0  0
 13 34  1  0  0  0  0
 14 15  1  0  0  0  0
 14 25  1  0  0  0  0
 15 16  1  0  0  0  0
 16 17  1  0  0  0  0
 16 24  2  0  0  0  0
 17 18  2  0  0  0  0
 17 35  1  0  0  0  0
 18 19  1  0  0  0  0
 18 36  1  0  0  0  0
 19 20  2  0  0  0  0
 19 23  1  0  0  0  0
 20 21  1  0  0  0  0
 21 22  2  0  0  0  0
 21 37  1  0  0  0  0
 22 23  1  0  0  0  0
 22 38  1  0  0  0  0
 23 24  1  0  0  0  0
 25 39  1  0  0  0  0
M  END
$$$$
