CHEMBL3593285
 OpenBabel04072215363D

 67 71  0  0  0  0  0  0  0  0999 V2000
    6.0089    2.1343    9.9152 C   0  0  0  0  0  0  0  0  0  0  0  0
    4.9947    2.8217    9.0087 C   0  0  0  0  0  0  0  0  0  0  0  0
    5.3969    4.1574    8.5563 N   0  0  0  0  0  0  0  0  0  0  0  0
    4.3266    4.7501    7.6958 C   0  0  0  0  0  0  0  0  0  0  0  0
    4.1795    4.1234    6.2788 C   0  0  0  0  0  0  0  0  0  0  0  0
    5.4865    4.1413    5.6320 N   0  0  0  0  0  0  0  0  0  0  0  0
    5.5894    4.2715    4.2615 C   0  0  0  0  0  0  0  0  0  0  0  0
    6.7218    4.8649    3.7510 C   0  0  0  0  0  0  0  0  0  0  0  0
    6.8081    5.1399    2.4039 C   0  0  0  0  0  0  0  0  0  0  0  0
    7.8709    5.8782    1.8528 N   0  0  0  0  0  0  0  0  0  0  0  0
    8.6248    6.7733    2.5377 C   0  0  0  0  0  0  0  0  0  0  0  0
    8.7095    6.8361    3.8474 N   0  0  0  0  0  0  0  0  0  0  0  0
    9.4622    7.8964    4.2516 C   0  0  0  0  0  0  0  0  0  0  0  0
   10.0326    8.6447    3.2431 C   0  0  0  0  0  0  0  0  0  0  0  0
   10.9468    9.7749    3.4043 C   0  0  0  0  0  0  0  0  0  0  0  0
   11.8008    9.7597    4.5098 C   0  0  0  0  0  0  0  0  0  0  0  0
   12.6563   10.8212    4.7722 C   0  0  0  0  0  0  0  0  0  0  0  0
   12.7096   11.9325    3.9370 C   0  0  0  0  0  0  0  0  0  0  0  0
   13.5732   13.0314    4.1802 N   0  0  0  0  0  0  0  0  0  0  0  0
   14.5140   13.0851    5.1993 C   0  0  0  0  0  0  0  0  0  0  0  0
   14.7643   12.1725    5.9808 O   0  0  0  0  0  0  0  0  0  0  0  0
   15.1370   14.3239    5.2898 N   0  0  0  0  0  0  0  0  0  0  0  0
   16.0896   14.5243    6.3225 C   0  0  0  0  0  0  0  0  0  0  0  0
   17.1353   13.6118    6.5283 C   0  0  0  0  0  0  0  0  0  0  0  0
   17.9969   13.7546    7.6176 C   0  0  0  0  0  0  0  0  0  0  0  0
   17.8070   14.8078    8.5071 C   0  0  0  0  0  0  0  0  0  0  0  0
   18.8338   14.9618    9.8792 Cl  0  0  0  0  0  0  0  0  0  0  0  0
   16.7824   15.7319    8.2986 C   0  0  0  0  0  0  0  0  0  0  0  0
   15.9358   15.6057    7.1912 C   0  0  0  0  0  0  0  0  0  0  0  0
   11.8568   11.9600    2.8228 C   0  0  0  0  0  0  0  0  0  0  0  0
   10.9797   10.8872    2.5601 C   0  0  0  0  0  0  0  0  0  0  0  0
    9.5549    7.9901    1.7295 S   0  0  0  0  0  0  0  0  0  0  0  0
    5.8400    4.7375    1.5694 N   0  0  0  0  0  0  0  0  0  0  0  0
    4.7634    4.1467    2.1327 C   0  0  0  0  0  0  0  0  0  0  0  0
    3.6486    3.7308    1.2251 C   0  0  0  0  0  0  0  0  0  0  0  0
    4.5842    3.9272    3.4511 N   0  0  0  0  0  0  0  0  0  0  0  0
    6.5732    3.5100    6.3879 C   0  0  0  0  0  0  0  0  0  0  0  0
    6.6642    4.1676    7.7814 C   0  0  0  0  0  0  0  0  0  0  0  0
    5.5852    1.1982   10.2917 H   0  0  0  0  0  0  0  0  0  0  0  0
    6.2608    2.7613   10.7767 H   0  0  0  0  0  0  0  0  0  0  0  0
    6.9294    1.8786    9.3824 H   0  0  0  0  0  0  0  0  0  0  0  0
    4.0668    2.9261    9.5860 H   0  0  0  0  0  0  0  0  0  0  0  0
    4.7690    2.1506    8.1679 H   0  0  0  0  0  0  0  0  0  0  0  0
    4.5585    5.8189    7.5767 H   0  0  0  0  0  0  0  0  0  0  0  0
    3.3658    4.7134    8.2181 H   0  0  0  0  0  0  0  0  0  0  0  0
    3.4460    4.7173    5.7189 H   0  0  0  0  0  0  0  0  0  0  0  0
    3.8021    3.0973    6.3403 H   0  0  0  0  0  0  0  0  0  0  0  0
    7.4857    5.1771    4.4440 H   0  0  0  0  0  0  0  0  0  0  0  0
    7.7441    5.9947    0.8571 H   0  0  0  0  0  0  0  0  0  0  0  0
    9.5790    8.0770    5.3136 H   0  0  0  0  0  0  0  0  0  0  0  0
   11.8222    8.9177    5.1993 H   0  0  0  0  0  0  0  0  0  0  0  0
   13.2673   10.7229    5.6631 H   0  0  0  0  0  0  0  0  0  0  0  0
   13.5851   13.7725    3.5010 H   0  0  0  0  0  0  0  0  0  0  0  0
   14.5298   15.1039    5.0842 H   0  0  0  0  0  0  0  0  0  0  0  0
   17.2683   12.7644    5.8587 H   0  0  0  0  0  0  0  0  0  0  0  0
   18.7895   13.0288    7.7756 H   0  0  0  0  0  0  0  0  0  0  0  0
   16.6210   16.5363    9.0111 H   0  0  0  0  0  0  0  0  0  0  0  0
   15.1169   16.3079    7.0705 H   0  0  0  0  0  0  0  0  0  0  0  0
   11.8463   12.8111    2.1452 H   0  0  0  0  0  0  0  0  0  0  0  0
   10.3107   10.9512    1.7060 H   0  0  0  0  0  0  0  0  0  0  0  0
    3.8875    3.9504    0.1804 H   0  0  0  0  0  0  0  0  0  0  0  0
    2.7350    4.2695    1.4933 H   0  0  0  0  0  0  0  0  0  0  0  0
    3.4686    2.6561    1.3225 H   0  0  0  0  0  0  0  0  0  0  0  0
    7.5497    3.6073    5.9001 H   0  0  0  0  0  0  0  0  0  0  0  0
    6.3804    2.4346    6.4765 H   0  0  0  0  0  0  0  0  0  0  0  0
    6.9625    5.2158    7.6477 H   0  0  0  0  0  0  0  0  0  0  0  0
    7.4815    3.7170    8.3537 H   0  0  0  0  0  0  0  0  0  0  0  0
  1  2  1  0  0  0  0
  1 39  1  0  0  0  0
  1 40  1  0  0  0  0
  1 41  1  0  0  0  0
  2  3  1  0  0  0  0
  2 42  1  0  0  0  0
  2 43  1  0  0  0  0
  3  4  1  0  0  0  0
  3 38  1  0  0  0  0
  4  5  1  0  0  0  0
  4 44  1  0  0  0  0
  4 45  1  0  0  0  0
  5  6  1  0  0  0  0
  5 46  1  0  0  0  0
  5 47  1  0  0  0  0
  6  7  1  0  0  0  0
  6 37  1  0  0  0  0
  7  8  1  0  0  0  0
  7 36  2  0  0  0  0
  8  9  2  0  0  0  0
  8 48  1  0  0  0  0
  9 10  1  0  0  0  0
  9 33  1  0  0  0  0
 10 11  1  0  0  0  0
 10 49  1  0  0  0  0
 11 12  2  0  0  0  0
 11 32  1  0  0  0  0
 12 13  1  0  0  0  0
 13 14  2  0  0  0  0
 13 50  1  0  0  0  0
 14 15  1  0  0  0  0
 14 32  1  0  0  0  0
 15 16  1  0  0  0  0
 15 31  2  0  0  0  0
 16 17  2  0  0  0  0
 16 51  1  0  0  0  0
 17 18  1  0  0  0  0
 17 52  1  0  0  0  0
 18 19  1  0  0  0  0
 18 30  2  0  0  0  0
 19 20  1  0  0  0  0
 19 53  1  0  0  0  0
 20 21  2  0  0  0  0
 20 22  1  0  0  0  0
 22 23  1  0  0  0  0
 22 54  1  0  0  0  0
 23 24  1  0  0  0  0
 23 29  2  0  0  0  0
 24 25  2  0  0  0  0
 24 55  1  0  0  0  0
 25 26  1  0  0  0  0
 25 56  1  0  0  0  0
 26 27  1  0  0  0  0
 26 28  2  0  0  0  0
 28 29  1  0  0  0  0
 28 57  1  0  0  0  0
 29 58  1  0  0  0  0
 30 31  1  0  0  0  0
 30 59  1  0  0  0  0
 31 60  1  0  0  0  0
 33 34  2  0  0  0  0
 34 35  1  0  0  0  0
 34 36  1  0  0  0  0
 35 61  1  0  0  0  0
 35 62  1  0  0  0  0
 35 63  1  0  0  0  0
 37 38  1  0  0  0  0
 37 64  1  0  0  0  0
 37 65  1  0  0  0  0
 38 66  1  0  0  0  0
 38 67  1  0  0  0  0
M  END
$$$$
