CHEMBL4059790
 OpenBabel04072215383D

 75 81  0  0  1  0  0  0  0  0999 V2000
    4.5506    4.4592  -12.6663 C   0  0  0  0  0  0  0  0  0  0  0  0
    3.7382    4.1807  -11.5245 O   0  0  0  0  0  0  0  0  0  0  0  0
    3.5573    5.2295  -10.6656 C   0  0  0  0  0  0  0  0  0  0  0  0
    3.4422    6.5521  -11.1367 C   0  0  0  0  0  0  0  0  0  0  0  0
    3.3646    7.6524  -10.2937 C   0  0  0  0  0  0  0  0  0  0  0  0
    3.3088    8.8827  -10.8325 N   0  0  0  0  0  0  0  0  0  0  0  0
    3.2395    9.9235  -10.0024 C   0  0  0  0  0  0  0  0  0  0  0  0
    3.2366    9.8609   -8.6663 N   0  0  0  0  0  0  0  0  0  0  0  0
    3.3628    8.6129   -8.1417 C   0  0  0  0  0  0  0  0  0  0  0  0
    3.6187    8.5336   -6.7461 N   0  0  0  0  0  0  0  0  0  0  0  0
    4.3818    7.5442   -6.2132 N   0  0  0  0  0  0  0  0  0  0  0  0
    4.4325    7.8758   -4.9317 C   0  0  0  0  0  0  0  0  0  0  0  0
    5.0923    7.1612   -4.0070 N   0  0  0  0  0  0  0  0  0  0  0  0
    5.0412    7.2655   -2.6119 C   0  0  0  0  0  0  0  0  0  0  0  0
    6.1191    6.8354   -1.8505 C   0  0  0  0  0  0  0  0  0  0  0  0
    6.1237    7.0161   -0.4628 C   0  0  0  0  0  0  0  0  0  0  0  0
    5.0759    7.6581    0.2362 C   0  0  0  0  0  0  0  0  0  0  0  0
    5.1423    7.7055    1.6258 N   0  0  0  0  0  0  0  0  0  0  0  0
    6.4164    8.0097    2.3045 C   0  0  0  0  0  0  0  0  0  0  0  0
    6.4742    7.2705    3.6636 C   0  0  0  0  0  0  0  0  0  0  0  0
    5.3387    7.5579    4.5795 N   0  0  0  0  0  0  0  0  0  0  0  0
    5.3636    8.9456    5.0630 C   0  0  3  0  0  0  0  0  0  0  0  0
    6.5761    9.2386    5.9870 C   0  0  0  0  0  0  0  0  0  0  0  0
    5.9295    9.8599    7.2352 C   0  0  3  0  0  0  0  0  0  0  0  0
    5.2007    8.7484    8.0118 C   0  0  0  0  0  0  0  0  0  0  0  0
    3.9557    8.4885    7.1559 C   0  0  0  0  0  0  0  0  0  0  0  0
    4.1704    9.4118    5.9473 C   0  0  3  0  0  0  0  0  0  0  0  0
    4.7704   10.6463    6.6292 C   0  0  0  0  0  0  0  0  0  0  0  0
    4.0989    7.2267    3.8405 C   0  0  0  0  0  0  0  0  0  0  0  0
    3.9430    7.8984    2.4582 C   0  0  0  0  0  0  0  0  0  0  0  0
    4.0115    8.1246   -0.5669 C   0  0  0  0  0  0  0  0  0  0  0  0
    2.6815    9.0918    0.0001 Cl  0  0  0  0  0  0  0  0  0  0  0  0
    3.9946    7.9051   -1.9490 C   0  0  0  0  0  0  0  0  0  0  0  0
    3.7948    9.0392   -4.6167 N   0  0  0  0  0  0  0  0  0  0  0  0
    3.2863    9.4421   -5.7502 C   0  0  0  0  0  0  0  0  0  0  0  0
    2.5080   10.5313   -5.9147 N   0  0  0  0  0  0  0  0  0  0  0  0
    3.3680    7.4375   -8.9178 C   0  0  0  0  0  0  0  0  0  0  0  0
    3.3463    6.0912   -8.4493 C   0  0  0  0  0  0  0  0  0  0  0  0
    3.4544    4.9934   -9.3007 C   0  0  0  0  0  0  0  0  0  0  0  0
    3.4712    3.8181   -8.6023 O   0  0  0  0  0  0  0  0  0  0  0  0
    3.5945    2.5889   -9.2941 C   0  0  0  0  0  0  0  0  0  0  0  0
    5.1666    3.5809  -12.8649 H   0  0  0  0  0  0  0  0  0  0  0  0
    5.2344    5.3056  -12.5225 H   0  0  0  0  0  0  0  0  0  0  0  0
    3.9055    4.6374  -13.5334 H   0  0  0  0  0  0  0  0  0  0  0  0
    3.4283    6.7500  -12.2077 H   0  0  0  0  0  0  0  0  0  0  0  0
    3.2078   10.9110  -10.4485 H   0  0  0  0  0  0  0  0  0  0  0  0
    5.6436    6.3851   -4.3542 H   0  0  0  0  0  0  0  0  0  0  0  0
    6.9755    6.3601   -2.3225 H   0  0  0  0  0  0  0  0  0  0  0  0
    6.9749    6.6033    0.0705 H   0  0  0  0  0  0  0  0  0  0  0  0
    6.5069    9.0937    2.4413 H   0  0  0  0  0  0  0  0  0  0  0  0
    7.2990    7.7106    1.7337 H   0  0  0  0  0  0  0  0  0  0  0  0
    7.4328    7.4717    4.1522 H   0  0  0  0  0  0  0  0  0  0  0  0
    6.4760    6.1889    3.4627 H   0  0  0  0  0  0  0  0  0  0  0  0
    5.4116    9.6428    4.2172 H   0  0  0  0  0  0  0  0  0  0  0  0
    7.2465    9.9539    5.4958 H   0  0  0  0  0  0  0  0  0  0  0  0
    7.1663    8.3521    6.2443 H   0  0  0  0  0  0  0  0  0  0  0  0
    6.6274   10.4350    7.8456 H   0  0  0  0  0  0  0  0  0  0  0  0
    4.9089    9.0920    9.0103 H   0  0  0  0  0  0  0  0  0  0  0  0
    5.8112    7.8462    8.1258 H   0  0  0  0  0  0  0  0  0  0  0  0
    3.0578    8.7954    7.7075 H   0  0  0  0  0  0  0  0  0  0  0  0
    3.8395    7.4337    6.8925 H   0  0  0  0  0  0  0  0  0  0  0  0
    3.2574    9.6104    5.3814 H   0  0  0  0  0  0  0  0  0  0  0  0
    4.1097   11.0899    7.3807 H   0  0  0  0  0  0  0  0  0  0  0  0
    5.0934   11.4179    5.9224 H   0  0  0  0  0  0  0  0  0  0  0  0
    3.2102    7.4347    4.4456 H   0  0  0  0  0  0  0  0  0  0  0  0
    4.0854    6.1386    3.6883 H   0  0  0  0  0  0  0  0  0  0  0  0
    3.7455    8.9685    2.5900 H   0  0  0  0  0  0  0  0  0  0  0  0
    3.0718    7.4197    1.9993 H   0  0  0  0  0  0  0  0  0  0  0  0
    3.1324    8.2512   -2.5130 H   0  0  0  0  0  0  0  0  0  0  0  0
    2.5145   11.2045   -5.1542 H   0  0  0  0  0  0  0  0  0  0  0  0
    2.4491   10.9497   -6.8440 H   0  0  0  0  0  0  0  0  0  0  0  0
    3.2479    5.8766   -7.3878 H   0  0  0  0  0  0  0  0  0  0  0  0
    3.6211    1.7984   -8.5401 H   0  0  0  0  0  0  0  0  0  0  0  0
    4.5360    2.5354   -9.8503 H   0  0  0  0  0  0  0  0  0  0  0  0
    2.7264    2.4060   -9.9335 H   0  0  0  0  0  0  0  0  0  0  0  0
  1  2  1  0  0  0  0
  1 42  1  0  0  0  0
  1 43  1  0  0  0  0
  1 44  1  0  0  0  0
  2  3  1  0  0  0  0
  3  4  1  0  0  0  0
  3 39  2  0  0  0  0
  4  5  2  0  0  0  0
  4 45  1  0  0  0  0
  5  6  1  0  0  0  0
  5 37  1  0  0  0  0
  6  7  2  0  0  0  0
  7  8  1  0  0  0  0
  7 46  1  0  0  0  0
  8  9  2  0  0  0  0
  9 10  1  0  0  0  0
  9 37  1  0  0  0  0
 10 11  1  0  0  0  0
 10 35  1  0  0  0  0
 11 12  2  0  0  0  0
 12 13  1  0  0  0  0
 12 34  1  0  0  0  0
 13 14  1  0  0  0  0
 13 47  1  0  0  0  0
 14 15  1  0  0  0  0
 14 33  2  0  0  0  0
 15 16  2  0  0  0  0
 15 48  1  0  0  0  0
 16 17  1  0  0  0  0
 16 49  1  0  0  0  0
 17 18  1  0  0  0  0
 17 31  2  0  0  0  0
 18 19  1  0  0  0  0
 18 30  1  0  0  0  0
 19 20  1  0  0  0  0
 19 50  1  0  0  0  0
 19 51  1  0  0  0  0
 20 21  1  0  0  0  0
 20 52  1  0  0  0  0
 20 53  1  0  0  0  0
 21 22  1  0  0  0  0
 21 29  1  0  0  0  0
 22 23  1  0  0  0  0
 22 27  1  0  0  0  0
 22 54  1  0  0  0  0
 23 24  1  0  0  0  0
 23 55  1  0  0  0  0
 23 56  1  0  0  0  0
 24 25  1  0  0  0  0
 24 28  1  0  0  0  0
 24 57  1  0  0  0  0
 25 26  1  0  0  0  0
 25 58  1  0  0  0  0
 25 59  1  0  0  0  0
 26 27  1  0  0  0  0
 26 60  1  0  0  0  0
 26 61  1  0  0  0  0
 27 28  1  0  0  0  0
 27 62  1  0  0  0  0
 28 63  1  0  0  0  0
 28 64  1  0  0  0  0
 29 30  1  0  0  0  0
 29 65  1  0  0  0  0
 29 66  1  0  0  0  0
 30 67  1  0  0  0  0
 30 68  1  0  0  0  0
 31 32  1  0  0  0  0
 31 33  1  0  0  0  0
 33 69  1  0  0  0  0
 34 35  2  0  0  0  0
 35 36  1  0  0  0  0
 36 70  1  0  0  0  0
 36 71  1  0  0  0  0
 37 38  2  0  0  0  0
 38 39  1  0  0  0  0
 38 72  1  0  0  0  0
 39 40  1  0  0  0  0
 40 41  1  0  0  0  0
 41 73  1  0  0  0  0
 41 74  1  0  0  0  0
 41 75  1  0  0  0  0
M  END
$$$$
