CHEMBL220444
 OpenBabel04072215363D

 51 53  0  0  0  0  0  0  0  0999 V2000
    6.5870   -2.0551    5.4148 C   0  0  0  0  0  0  0  0  0  0  0  0
    7.0616   -2.1529    4.0129 C   0  0  0  0  0  0  0  0  0  0  0  0
    6.4025   -1.9578    2.8148 C   0  0  0  0  0  0  0  0  0  0  0  0
    7.3757   -1.9512    1.7749 C   0  0  0  0  0  0  0  0  0  0  0  0
    7.3438   -1.6891    0.3888 C   0  0  0  0  0  0  0  0  0  0  0  0
    6.1762   -1.4086   -0.2116 F   0  0  0  0  0  0  0  0  0  0  0  0
    8.5324   -1.6822   -0.3544 C   0  0  0  0  0  0  0  0  0  0  0  0
    8.4240   -1.4160   -1.7082 O   0  0  0  0  0  0  0  0  0  0  0  0
    9.4587   -0.7202   -2.3306 C   0  0  0  0  0  0  0  0  0  0  0  0
   10.1758    0.1477   -1.5802 N   0  0  0  0  0  0  0  0  0  0  0  0
   11.2251    0.7170   -2.1815 C   0  0  0  0  0  0  0  0  0  0  0  0
   11.5891    0.5305   -3.4533 N   0  0  0  0  0  0  0  0  0  0  0  0
   10.8233   -0.2989   -4.1866 C   0  0  0  0  0  0  0  0  0  0  0  0
   11.1815   -0.3512   -5.5341 N   0  0  0  0  0  0  0  0  0  0  0  0
    9.7190   -0.9571   -3.6631 C   0  0  0  0  0  0  0  0  0  0  0  0
    8.9113   -1.8852   -4.4666 C   0  0  0  0  0  0  0  0  0  0  0  0
    9.4471   -2.5461   -5.4419 N   0  0  0  0  0  0  0  0  0  0  0  0
    8.4694   -3.3307   -6.0588 O   0  0  0  0  0  0  0  0  0  0  0  0
    9.0968   -4.0608   -7.1151 C   0  0  0  0  0  0  0  0  0  0  0  0
    8.0349   -4.8934   -7.8147 C   0  0  0  0  0  0  0  0  0  0  0  0
    8.6192   -5.7456   -8.9435 C   0  0  0  0  0  0  0  0  0  0  0  0
    9.6639   -6.6856   -8.5037 N   0  0  0  0  0  0  0  0  0  0  0  0
    9.1681   -7.6469   -7.5163 C   0  0  0  0  0  0  0  0  0  0  0  0
   10.2202   -7.3996   -9.6550 C   0  0  0  0  0  0  0  0  0  0  0  0
    9.7392   -2.0030    0.2767 C   0  0  0  0  0  0  0  0  0  0  0  0
    9.7993   -2.2849    1.6477 C   0  0  0  0  0  0  0  0  0  0  0  0
    8.6037   -2.2421    2.3704 C   0  0  0  0  0  0  0  0  0  0  0  0
    8.3711   -2.4375    3.7133 N   0  0  0  0  0  0  0  0  0  0  0  0
    5.5320   -1.7664    5.4526 H   0  0  0  0  0  0  0  0  0  0  0  0
    7.1593   -1.2865    5.9472 H   0  0  0  0  0  0  0  0  0  0  0  0
    6.7074   -3.0040    5.9449 H   0  0  0  0  0  0  0  0  0  0  0  0
    5.3473   -1.7448    2.7007 H   0  0  0  0  0  0  0  0  0  0  0  0
   11.8388    1.3792   -1.5827 H   0  0  0  0  0  0  0  0  0  0  0  0
   12.0804    0.1000   -5.6693 H   0  0  0  0  0  0  0  0  0  0  0  0
   11.1331   -1.3028   -5.8997 H   0  0  0  0  0  0  0  0  0  0  0  0
    7.8471   -2.0000   -4.2033 H   0  0  0  0  0  0  0  0  0  0  0  0
    9.8823   -4.6928   -6.6858 H   0  0  0  0  0  0  0  0  0  0  0  0
    9.5544   -3.3582   -7.8225 H   0  0  0  0  0  0  0  0  0  0  0  0
    7.2650   -4.2268   -8.2219 H   0  0  0  0  0  0  0  0  0  0  0  0
    7.5055   -5.5152   -7.0815 H   0  0  0  0  0  0  0  0  0  0  0  0
    9.0498   -5.0595   -9.6861 H   0  0  0  0  0  0  0  0  0  0  0  0
    7.8031   -6.2803   -9.4461 H   0  0  0  0  0  0  0  0  0  0  0  0
    8.8787   -7.1477   -6.5857 H   0  0  0  0  0  0  0  0  0  0  0  0
    9.9573   -8.3530   -7.2361 H   0  0  0  0  0  0  0  0  0  0  0  0
    8.3092   -8.2152   -7.8895 H   0  0  0  0  0  0  0  0  0  0  0  0
   10.6519   -6.6961  -10.3753 H   0  0  0  0  0  0  0  0  0  0  0  0
    9.4644   -8.0040  -10.1690 H   0  0  0  0  0  0  0  0  0  0  0  0
   11.0346   -8.0609   -9.3383 H   0  0  0  0  0  0  0  0  0  0  0  0
   10.6715   -2.0155   -0.2830 H   0  0  0  0  0  0  0  0  0  0  0  0
   10.7481   -2.5014    2.1281 H   0  0  0  0  0  0  0  0  0  0  0  0
    9.0861   -2.6677    4.3900 H   0  0  0  0  0  0  0  0  0  0  0  0
  1  2  1  0  0  0  0
  1 29  1  0  0  0  0
  1 30  1  0  0  0  0
  1 31  1  0  0  0  0
  2  3  2  0  0  0  0
  2 28  1  0  0  0  0
  3  4  1  0  0  0  0
  3 32  1  0  0  0  0
  4  5  1  0  0  0  0
  4 27  2  0  0  0  0
  5  6  1  0  0  0  0
  5  7  2  0  0  0  0
  7  8  1  0  0  0  0
  7 25  1  0  0  0  0
  8  9  1  0  0  0  0
  9 10  1  0  0  0  0
  9 15  2  0  0  0  0
 10 11  2  0  0  0  0
 11 12  1  0  0  0  0
 11 33  1  0  0  0  0
 12 13  2  0  0  0  0
 13 14  1  0  0  0  0
 13 15  1  0  0  0  0
 14 34  1  0  0  0  0
 14 35  1  0  0  0  0
 15 16  1  0  0  0  0
 16 17  2  0  0  0  0
 16 36  1  0  0  0  0
 17 18  1  0  0  0  0
 18 19  1  0  0  0  0
 19 20  1  0  0  0  0
 19 37  1  0  0  0  0
 19 38  1  0  0  0  0
 20 21  1  0  0  0  0
 20 39  1  0  0  0  0
 20 40  1  0  0  0  0
 21 22  1  0  0  0  0
 21 41  1  0  0  0  0
 21 42  1  0  0  0  0
 22 23  1  0  0  0  0
 22 24  1  0  0  0  0
 23 43  1  0  0  0  0
 23 44  1  0  0  0  0
 23 45  1  0  0  0  0
 24 46  1  0  0  0  0
 24 47  1  0  0  0  0
 24 48  1  0  0  0  0
 25 26  2  0  0  0  0
 25 49  1  0  0  0  0
 26 27  1  0  0  0  0
 26 50  1  0  0  0  0
 27 28  1  0  0  0  0
 28 51  1  0  0  0  0
M  END
$$$$
