CHEMBL2088093
 OpenBabel04072215363D

 46 48  0  0  0  0  0  0  0  0999 V2000
    2.7461   -1.2851    1.8428 C   0  0  0  0  0  0  0  0  0  0  0  0
    3.8466   -1.0017    2.6980 O   0  0  0  0  0  0  0  0  0  0  0  0
    4.7744   -0.1068    2.0854 C   0  0  0  0  0  0  0  0  0  0  0  0
    5.9368    0.1516    3.0431 C   0  0  0  0  0  0  0  0  0  0  0  0
    6.6295   -1.1171    3.5524 C   0  0  0  0  0  0  0  0  0  0  0  0
    7.2733   -1.9078    2.4675 C   0  0  0  0  0  0  0  0  0  0  0  0
    8.5279   -1.8747    1.8971 C   0  0  0  0  0  0  0  0  0  0  0  0
    8.4991   -2.8409    0.8626 C   0  0  0  0  0  0  0  0  0  0  0  0
    9.5508   -3.0466    0.0328 N   0  0  0  0  0  0  0  0  0  0  0  0
    9.5096   -3.6417   -1.2446 C   0  0  0  0  0  0  0  0  0  0  0  0
   10.5206   -4.5104   -1.5044 N   0  0  0  0  0  0  0  0  0  0  0  0
   10.5374   -5.1364   -2.6924 C   0  0  0  0  0  0  0  0  0  0  0  0
   11.5572   -6.0510   -2.9021 N   0  0  0  0  0  0  0  0  0  0  0  0
   11.9738   -6.1954   -4.2880 C   0  0  0  0  0  0  0  0  0  0  0  0
   13.0312   -7.2235   -4.4779 C   0  0  0  0  0  0  0  0  0  0  0  0
   13.1094   -8.5686   -4.2084 C   0  0  0  0  0  0  0  0  0  0  0  0
   14.3987   -8.9396   -4.6469 C   0  0  0  0  0  0  0  0  0  0  0  0
   15.0376  -10.2734   -4.5959 C   0  0  0  0  0  0  0  0  0  0  0  0
   15.0594   -7.8920   -5.1560 N   0  0  0  0  0  0  0  0  0  0  0  0
   14.1960   -6.8147   -5.0492 O   0  0  0  0  0  0  0  0  0  0  0  0
    9.6335   -4.9273   -3.6574 N   0  0  0  0  0  0  0  0  0  0  0  0
    8.6688   -4.0259   -3.3929 C   0  0  0  0  0  0  0  0  0  0  0  0
    8.5568   -3.3364   -2.2096 C   0  0  0  0  0  0  0  0  0  0  0  0
    7.2448   -1.9749   -2.1064 Br  0  0  0  0  0  0  0  0  0  0  0  0
    7.3257   -3.4784    0.8355 N   0  0  0  0  0  0  0  0  0  0  0  0
    6.6046   -2.8989    1.8050 N   0  0  0  0  0  0  0  0  0  0  0  0
    2.0466   -1.9265    2.3858 H   0  0  0  0  0  0  0  0  0  0  0  0
    3.0898   -1.8188    0.9518 H   0  0  0  0  0  0  0  0  0  0  0  0
    2.2277   -0.3648    1.5572 H   0  0  0  0  0  0  0  0  0  0  0  0
    4.2731    0.8417    1.8586 H   0  0  0  0  0  0  0  0  0  0  0  0
    5.1347   -0.5352    1.1437 H   0  0  0  0  0  0  0  0  0  0  0  0
    5.5475    0.6861    3.9193 H   0  0  0  0  0  0  0  0  0  0  0  0
    6.6629    0.8147    2.5578 H   0  0  0  0  0  0  0  0  0  0  0  0
    5.9137   -1.7444    4.0981 H   0  0  0  0  0  0  0  0  0  0  0  0
    7.3959   -0.8279    4.2819 H   0  0  0  0  0  0  0  0  0  0  0  0
    9.3368   -1.2044    2.1524 H   0  0  0  0  0  0  0  0  0  0  0  0
   10.3884   -3.4015    0.4847 H   0  0  0  0  0  0  0  0  0  0  0  0
   12.3015   -5.8346   -2.2492 H   0  0  0  0  0  0  0  0  0  0  0  0
   12.3333   -5.2315   -4.6719 H   0  0  0  0  0  0  0  0  0  0  0  0
   11.1251   -6.4986   -4.9157 H   0  0  0  0  0  0  0  0  0  0  0  0
   12.3447   -9.1835   -3.7576 H   0  0  0  0  0  0  0  0  0  0  0  0
   14.3520  -11.0231   -4.1877 H   0  0  0  0  0  0  0  0  0  0  0  0
   15.9281  -10.2489   -3.9594 H   0  0  0  0  0  0  0  0  0  0  0  0
   15.3358  -10.5993   -5.5975 H   0  0  0  0  0  0  0  0  0  0  0  0
    7.9748   -3.8617   -4.2124 H   0  0  0  0  0  0  0  0  0  0  0  0
    5.6455   -3.2020    1.9444 H   0  0  0  0  0  0  0  0  0  0  0  0
  1  2  1  0  0  0  0
  1 27  1  0  0  0  0
  1 28  1  0  0  0  0
  1 29  1  0  0  0  0
  2  3  1  0  0  0  0
  3  4  1  0  0  0  0
  3 30  1  0  0  0  0
  3 31  1  0  0  0  0
  4  5  1  0  0  0  0
  4 32  1  0  0  0  0
  4 33  1  0  0  0  0
  5  6  1  0  0  0  0
  5 34  1  0  0  0  0
  5 35  1  0  0  0  0
  6  7  2  0  0  0  0
  6 26  1  0  0  0  0
  7  8  1  0  0  0  0
  7 36  1  0  0  0  0
  8  9  1  0  0  0  0
  8 25  2  0  0  0  0
  9 10  1  0  0  0  0
  9 37  1  0  0  0  0
 10 11  1  0  0  0  0
 10 23  2  0  0  0  0
 11 12  2  0  0  0  0
 12 13  1  0  0  0  0
 12 21  1  0  0  0  0
 13 14  1  0  0  0  0
 13 38  1  0  0  0  0
 14 15  1  0  0  0  0
 14 39  1  0  0  0  0
 14 40  1  0  0  0  0
 15 16  2  0  0  0  0
 15 20  1  0  0  0  0
 16 17  1  0  0  0  0
 16 41  1  0  0  0  0
 17 18  1  0  0  0  0
 17 19  2  0  0  0  0
 18 42  1  0  0  0  0
 18 43  1  0  0  0  0
 18 44  1  0  0  0  0
 19 20  1  0  0  0  0
 21 22  2  0  0  0  0
 22 23  1  0  0  0  0
 22 45  1  0  0  0  0
 23 24  1  0  0  0  0
 25 26  1  0  0  0  0
 26 46  1  0  0  0  0
M  END
$$$$
