CHEMBL3426917
 OpenBabel04072215363D

 51 54  0  0  0  0  0  0  0  0999 V2000
    1.2554   -4.6236   -0.7718 H   0  0  0  0  0  0  0  0  0  0  0  0
    1.8934   -4.2168   -1.5827 C   0  0  0  0  0  0  0  0  0  0  0  0
    2.5757   -5.0401   -1.8841 H   0  0  0  0  0  0  0  0  0  0  0  0
    1.2510   -3.9283   -2.4394 H   0  0  0  0  0  0  0  0  0  0  0  0
    2.5751   -3.1074   -1.1051 O   0  0  0  0  0  0  0  0  0  0  0  0
    3.9055   -2.8710   -1.2446 C   0  0  0  0  0  0  0  0  0  0  0  0
    4.6419   -3.4427   -2.3102 C   0  0  0  0  0  0  0  0  0  0  0  0
    6.0258   -3.2610   -2.4110 C   0  0  0  0  0  0  0  0  0  0  0  0
    6.7050   -3.8506   -3.4332 N   0  0  0  0  0  0  0  0  0  0  0  0
    8.0488   -3.7393   -3.5583 C   0  0  0  0  0  0  0  0  0  0  0  0
    8.7903   -3.0358   -2.6069 C   0  0  0  0  0  0  0  0  0  0  0  0
    8.1537   -2.4142   -1.5258 C   0  0  0  0  0  0  0  0  0  0  0  0
    8.9547   -1.7976   -0.5996 O   0  0  0  0  0  0  0  0  0  0  0  0
    8.6998   -1.6718    0.7327 C   0  0  0  0  0  0  0  0  0  0  0  0
    7.9833   -2.6486    1.4383 C   0  0  0  0  0  0  0  0  0  0  0  0
    7.5566   -2.4114    2.7386 C   0  0  0  0  0  0  0  0  0  0  0  0
    7.8479   -1.1938    3.4036 C   0  0  0  0  0  0  0  0  0  0  0  0
    7.2899   -0.8643    4.7017 N   0  0  0  0  0  0  0  0  0  0  0  0
    6.1853   -1.4625    5.2585 C   0  0  0  0  0  0  0  0  0  0  0  0
    5.6058   -2.3559    4.6642 O   0  0  0  0  0  0  0  0  0  0  0  0
    5.6779   -1.0352    6.4547 N   0  0  0  0  0  0  0  0  0  0  0  0
    4.5419   -1.6667    7.0593 C   0  0  0  0  0  0  0  0  0  0  0  0
    3.8588   -1.2398    8.1811 C   0  0  0  0  0  0  0  0  0  0  0  0
    2.8790   -2.2030    8.3550 C   0  0  0  0  0  0  0  0  0  0  0  0
    1.8376   -2.2660    9.4208 C   0  0  0  0  0  0  0  0  0  0  0  0
    2.9967   -3.1023    7.4083 O   0  0  0  0  0  0  0  0  0  0  0  0
    3.9807   -2.8098    6.6114 N   0  0  0  0  0  0  0  0  0  0  0  0
    8.6910   -0.2698    2.7279 C   0  0  0  0  0  0  0  0  0  0  0  0
    9.1788    1.2559    3.4572 Cl  0  0  0  0  0  0  0  0  0  0  0  0
    9.1014   -0.5140    1.4049 C   0  0  0  0  0  0  0  0  0  0  0  0
    6.7221   -2.4912   -1.4505 C   0  0  0  0  0  0  0  0  0  0  0  0
    5.9548   -1.8413   -0.4600 C   0  0  0  0  0  0  0  0  0  0  0  0
    4.5876   -2.0431   -0.3196 C   0  0  0  0  0  0  0  0  0  0  0  0
    4.0326   -1.4498    0.7726 O   0  0  0  0  0  0  0  0  0  0  0  0
    2.7432   -1.4890    1.2461 C   0  0  0  0  0  0  0  0  0  0  0  0
    2.0750   -0.8914    0.5959 H   0  0  0  0  0  0  0  0  0  0  0  0
    2.3941   -2.5360    1.3545 H   0  0  0  0  0  0  0  0  0  0  0  0
    2.7450   -1.0348    2.2615 H   0  0  0  0  0  0  0  0  0  0  0  0
    4.1524   -4.0517   -3.0587 H   0  0  0  0  0  0  0  0  0  0  0  0
    8.5512   -4.2213   -4.3873 H   0  0  0  0  0  0  0  0  0  0  0  0
    9.8686   -2.9895   -2.7012 H   0  0  0  0  0  0  0  0  0  0  0  0
    7.6835   -3.5702    0.9559 H   0  0  0  0  0  0  0  0  0  0  0  0
    6.9747   -3.2036    3.1698 H   0  0  0  0  0  0  0  0  0  0  0  0
    7.6917   -0.0628    5.2114 H   0  0  0  0  0  0  0  0  0  0  0  0
    6.1121   -0.2349    6.9397 H   0  0  0  0  0  0  0  0  0  0  0  0
    4.0415   -0.3614    8.7852 H   0  0  0  0  0  0  0  0  0  0  0  0
    1.9029   -1.3848   10.0903 H   0  0  0  0  0  0  0  0  0  0  0  0
    1.9819   -3.1918   10.0168 H   0  0  0  0  0  0  0  0  0  0  0  0
    0.8312   -2.2966    8.9515 H   0  0  0  0  0  0  0  0  0  0  0  0
    9.6849    0.2285    0.8748 H   0  0  0  0  0  0  0  0  0  0  0  0
    6.3908   -1.1812    0.2604 H   0  0  0  0  0  0  0  0  0  0  0  0
  1  2  1  0  0  0  0
  2  3  1  0  0  0  0
  2  4  1  0  0  0  0
  2  5  1  0  0  0  0
  5  6  1  0  0  0  0
  6  7  1  0  0  0  0
  6 33  2  0  0  0  0
  7  8  2  0  0  0  0
  7 39  1  0  0  0  0
  8  9  1  0  0  0  0
  8 31  1  0  0  0  0
  9 10  2  0  0  0  0
 10 11  1  0  0  0  0
 10 40  1  0  0  0  0
 11 12  2  0  0  0  0
 11 41  1  0  0  0  0
 12 13  1  0  0  0  0
 12 31  1  0  0  0  0
 13 14  1  0  0  0  0
 14 15  1  0  0  0  0
 14 30  2  0  0  0  0
 15 16  2  0  0  0  0
 15 42  1  0  0  0  0
 16 17  1  0  0  0  0
 16 43  1  0  0  0  0
 17 18  1  0  0  0  0
 17 28  2  0  0  0  0
 18 19  1  0  0  0  0
 18 44  1  0  0  0  0
 19 20  2  0  0  0  0
 19 21  1  0  0  0  0
 21 22  1  0  0  0  0
 21 45  1  0  0  0  0
 22 23  1  0  0  0  0
 22 27  2  0  0  0  0
 23 24  2  0  0  0  0
 23 46  1  0  0  0  0
 24 25  1  0  0  0  0
 24 26  1  0  0  0  0
 25 47  1  0  0  0  0
 25 48  1  0  0  0  0
 25 49  1  0  0  0  0
 26 27  1  0  0  0  0
 28 29  1  0  0  0  0
 28 30  1  0  0  0  0
 30 50  1  0  0  0  0
 31 32  2  0  0  0  0
 32 33  1  0  0  0  0
 32 51  1  0  0  0  0
 33 34  1  0  0  0  0
 34 35  1  0  0  0  0
 35 36  1  0  0  0  0
 35 37  1  0  0  0  0
 35 38  1  0  0  0  0
M  ISO  6   1   2   3   2   4   2  36   2  37   2  38   2
M  END
$$$$
