CHEMBL178568
 OpenBabel04072215363D

 54 57  0  0  0  0  0  0  0  0999 V2000
    5.2720   -0.0488   -2.2508 C   0  0  0  0  0  0  0  0  0  0  0  0
    4.1655   -0.4732   -1.4508 O   0  0  0  0  0  0  0  0  0  0  0  0
    4.4796   -1.1556   -0.3064 C   0  0  0  0  0  0  0  0  0  0  0  0
    5.6954   -0.9479    0.3682 C   0  0  0  0  0  0  0  0  0  0  0  0
    6.1099   -1.7474    1.4237 C   0  0  0  0  0  0  0  0  0  0  0  0
    7.3447   -1.5450    1.9201 N   0  0  0  0  0  0  0  0  0  0  0  0
    7.7953   -2.3786    2.8790 C   0  0  0  0  0  0  0  0  0  0  0  0
    7.0718   -3.4505    3.3587 C   0  0  0  0  0  0  0  0  0  0  0  0
    5.7889   -3.6631    2.8505 C   0  0  0  0  0  0  0  0  0  0  0  0
    5.1755   -4.7902    3.3808 O   0  0  0  0  0  0  0  0  0  0  0  0
    4.3141   -5.5483    2.6220 C   0  0  0  0  0  0  0  0  0  0  0  0
    4.4493   -5.7590    1.2539 C   0  0  0  0  0  0  0  0  0  0  0  0
    3.3861   -6.3094    0.5263 C   0  0  0  0  0  0  0  0  0  0  0  0
    2.2144   -6.7414    1.1625 C   0  0  0  0  0  0  0  0  0  0  0  0
    1.0604   -7.1772    0.4609 N   0  0  0  0  0  0  0  0  0  0  0  0
    0.9267   -7.2324   -0.9166 C   0  0  0  0  0  0  0  0  0  0  0  0
    1.8311   -7.0430   -1.7181 O   0  0  0  0  0  0  0  0  0  0  0  0
   -0.3884   -7.4736   -1.3144 N   0  0  0  0  0  0  0  0  0  0  0  0
   -0.6863   -7.5519   -2.6993 C   0  0  0  0  0  0  0  0  0  0  0  0
    0.1283   -8.2915   -3.5695 C   0  0  0  0  0  0  0  0  0  0  0  0
   -0.0834   -8.2609   -4.9490 C   0  0  0  0  0  0  0  0  0  0  0  0
   -1.1239   -7.4821   -5.4616 C   0  0  0  0  0  0  0  0  0  0  0  0
   -1.3137   -7.3926   -6.9147 N   0  3  0  0  0  0  0  0  0  0  0  0
   -0.5637   -8.0626   -7.6386 O   0  0  0  0  0  0  0  0  0  0  0  0
   -2.2152   -6.6517   -7.3330 O   0  5  0  0  0  0  0  0  0  0  0  0
   -1.9736   -6.7730   -4.5987 C   0  0  0  0  0  0  0  0  0  0  0  0
   -1.7674   -6.8304   -3.2131 C   0  0  0  0  0  0  0  0  0  0  0  0
    2.1629   -6.6848    2.5551 C   0  0  0  0  0  0  0  0  0  0  0  0
    3.2087   -6.0908    3.2841 C   0  0  0  0  0  0  0  0  0  0  0  0
    5.2531   -2.7523    1.9033 C   0  0  0  0  0  0  0  0  0  0  0  0
    3.9397   -2.7811    1.3729 C   0  0  0  0  0  0  0  0  0  0  0  0
    3.5695   -2.0640    0.2302 C   0  0  0  0  0  0  0  0  0  0  0  0
    2.3262   -2.4317   -0.1976 O   0  0  0  0  0  0  0  0  0  0  0  0
    1.8832   -2.0664   -1.4915 C   0  0  0  0  0  0  0  0  0  0  0  0
    4.9716   -0.0966   -3.3020 H   0  0  0  0  0  0  0  0  0  0  0  0
    6.1607   -0.6848   -2.1489 H   0  0  0  0  0  0  0  0  0  0  0  0
    5.5188    0.9904   -2.0103 H   0  0  0  0  0  0  0  0  0  0  0  0
    6.3797   -0.1691    0.0488 H   0  0  0  0  0  0  0  0  0  0  0  0
    8.7955   -2.1631    3.2445 H   0  0  0  0  0  0  0  0  0  0  0  0
    7.5028   -4.1129    4.1012 H   0  0  0  0  0  0  0  0  0  0  0  0
    5.3153   -5.3944    0.7077 H   0  0  0  0  0  0  0  0  0  0  0  0
    3.4945   -6.3143   -0.5519 H   0  0  0  0  0  0  0  0  0  0  0  0
    0.2747   -7.4823    1.0164 H   0  0  0  0  0  0  0  0  0  0  0  0
   -1.0924   -7.0505   -0.7259 H   0  0  0  0  0  0  0  0  0  0  0  0
    0.9595   -8.8770   -3.1803 H   0  0  0  0  0  0  0  0  0  0  0  0
    0.5866   -8.8210   -5.5981 H   0  0  0  0  0  0  0  0  0  0  0  0
   -2.7765   -6.1510   -4.9899 H   0  0  0  0  0  0  0  0  0  0  0  0
   -2.4093   -6.2435   -2.5617 H   0  0  0  0  0  0  0  0  0  0  0  0
    1.2996   -7.0519    3.1034 H   0  0  0  0  0  0  0  0  0  0  0  0
    3.1356   -6.0029    4.3660 H   0  0  0  0  0  0  0  0  0  0  0  0
    3.1928   -3.4440    1.7991 H   0  0  0  0  0  0  0  0  0  0  0  0
    1.0774   -2.7596   -1.7593 H   0  0  0  0  0  0  0  0  0  0  0  0
    2.6522   -2.1699   -2.2618 H   0  0  0  0  0  0  0  0  0  0  0  0
    1.4603   -1.0593   -1.4643 H   0  0  0  0  0  0  0  0  0  0  0  0
  1  2  1  0  0  0  0
  1 35  1  0  0  0  0
  1 36  1  0  0  0  0
  1 37  1  0  0  0  0
  2  3  1  0  0  0  0
  3  4  1  0  0  0  0
  3 32  2  0  0  0  0
  4  5  2  0  0  0  0
  4 38  1  0  0  0  0
  5  6  1  0  0  0  0
  5 30  1  0  0  0  0
  6  7  2  0  0  0  0
  7  8  1  0  0  0  0
  7 39  1  0  0  0  0
  8  9  2  0  0  0  0
  8 40  1  0  0  0  0
  9 10  1  0  0  0  0
  9 30  1  0  0  0  0
 10 11  1  0  0  0  0
 11 12  1  0  0  0  0
 11 29  2  0  0  0  0
 12 13  2  0  0  0  0
 12 41  1  0  0  0  0
 13 14  1  0  0  0  0
 13 42  1  0  0  0  0
 14 15  1  0  0  0  0
 14 28  2  0  0  0  0
 15 16  1  0  0  0  0
 15 43  1  0  0  0  0
 16 17  2  0  0  0  0
 16 18  1  0  0  0  0
 18 19  1  0  0  0  0
 18 44  1  0  0  0  0
 19 20  1  0  0  0  0
 19 27  2  0  0  0  0
 20 21  2  0  0  0  0
 20 45  1  0  0  0  0
 21 22  1  0  0  0  0
 21 46  1  0  0  0  0
 22 23  1  0  0  0  0
 22 26  2  0  0  0  0
 23 24  2  0  0  0  0
 23 25  1  0  0  0  0
 26 27  1  0  0  0  0
 26 47  1  0  0  0  0
 27 48  1  0  0  0  0
 28 29  1  0  0  0  0
 28 49  1  0  0  0  0
 29 50  1  0  0  0  0
 30 31  2  0  0  0  0
 31 32  1  0  0  0  0
 31 51  1  0  0  0  0
 32 33  1  0  0  0  0
 33 34  1  0  0  0  0
 34 52  1  0  0  0  0
 34 53  1  0  0  0  0
 34 54  1  0  0  0  0
M  CHG  2  23   1  25  -1
M  END
$$$$
