CHEMBL3957643
 OpenBabel04072215373D

 75 78  0  0  1  0  0  0  0  0999 V2000
    3.1978   -1.4896    5.8408 C   0  0  0  0  0  0  0  0  0  0  0  0
    2.6621   -0.8448    4.7488 O   0  0  0  0  0  0  0  0  0  0  0  0
    3.2581   -0.1266    3.7549 C   0  0  0  0  0  0  0  0  0  0  0  0
    2.5273   -0.0544    2.6032 C   0  0  0  0  0  0  0  0  0  0  0  0
    3.0002    0.6084    1.4786 C   0  0  0  0  0  0  0  0  0  0  0  0
    2.2018    0.6968    0.3756 O   0  0  0  0  0  0  0  0  0  0  0  0
    0.8117    0.5680    0.4037 C   0  0  0  0  0  0  0  0  0  0  0  0
    4.3069    1.1840    1.4954 C   0  0  0  0  0  0  0  0  0  0  0  0
    5.1497    1.1611    2.6752 C   0  0  0  0  0  0  0  0  0  0  0  0
    6.5921    1.6755    2.7118 N   0  0  0  0  0  0  0  0  0  0  0  0
    7.1053    2.2293    1.4405 C   0  0  0  0  0  0  0  0  0  0  0  0
    8.6208    2.1212    1.2801 C   0  0  0  0  0  0  0  0  0  0  0  0
    9.1303    2.4868   -0.0706 N   0  0  0  0  0  0  0  0  0  0  0  0
    8.6551    1.6997   -1.2488 C   0  0  0  0  0  0  0  0  0  0  0  0
    9.2756    0.2796   -1.3964 C   0  0  2  0  0  0  0  0  0  0  0  0
    8.7539   -0.7897   -0.4133 C   0  0  0  0  0  0  0  0  0  0  0  0
   10.8073    0.3932   -1.3525 C   0  0  0  0  0  0  0  0  0  0  0  0
   11.2577    1.1482   -0.0853 C   0  0  1  0  0  0  0  0  0  0  0  0
   12.7798    1.2538   -0.0340 C   0  0  0  0  0  0  0  0  0  0  0  0
   10.6093    2.5565   -0.0684 C   0  0  0  0  0  0  0  0  0  0  0  0
    7.5049    1.1348    3.7819 C   0  0  0  0  0  0  0  0  0  0  0  0
    7.1926   -0.1925    3.9432 C   0  0  0  0  0  0  0  0  0  0  0  0
    7.4807   -0.8605    5.0261 C   0  0  0  0  0  0  0  0  0  0  0  0
    8.2836   -0.3633    5.9582 C   0  0  0  0  0  0  0  0  0  0  0  0
    8.1880   -1.0594    7.0441 N   0  0  0  0  0  0  0  0  0  0  0  0
    8.9622   -0.8877    8.0703 C   0  0  0  0  0  0  0  0  0  0  0  0
   10.1067   -0.1098    7.9834 C   0  0  0  0  0  0  0  0  0  0  0  0
   11.0271   -0.7081    9.1777 C   0  0  0  0  0  0  0  0  0  0  0  0
   10.8780   -2.1189    9.3823 C   0  0  0  0  0  0  0  0  0  0  0  0
   11.5020   -2.5532   10.4606 N   0  0  0  0  0  0  0  0  0  0  0  0
   12.1505   -1.5476   10.9890 N   0  0  0  0  0  0  0  0  0  0  0  0
   12.8510   -1.8166   12.2587 C   0  0  0  0  0  0  0  0  0  0  0  0
   11.9763   -0.4053   10.2126 C   0  0  0  0  0  0  0  0  0  0  0  0
   10.0752    0.8841    6.9236 N   0  0  0  0  0  0  0  0  0  0  0  0
    9.0566    0.7936    5.8708 C   0  0  0  0  0  0  0  0  0  0  0  0
    8.6100    1.6685    4.7063 C   0  0  0  0  0  0  0  0  0  0  0  0
    4.5233    0.5119    3.8218 C   0  0  0  0  0  0  0  0  0  0  0  0
    2.5090   -0.2864   -2.5033 Cl  0  0  0  0  0  0  0  0  0  0  0  0
    2.9144   -2.5670    5.7841 H   0  0  0  0  0  0  0  0  0  0  0  0
    2.7332   -1.0786    6.7593 H   0  0  0  0  0  0  0  0  0  0  0  0
    4.2998   -1.4228    5.8823 H   0  0  0  0  0  0  0  0  0  0  0  0
    1.5654   -0.5516    2.6099 H   0  0  0  0  0  0  0  0  0  0  0  0
    0.3869    0.6660   -0.6136 H   0  0  0  0  0  0  0  0  0  0  0  0
    0.3850    1.3737    1.0401 H   0  0  0  0  0  0  0  0  0  0  0  0
    0.4726   -0.4186    0.7918 H   0  0  0  0  0  0  0  0  0  0  0  0
    4.6190    1.6303    0.5639 H   0  0  0  0  0  0  0  0  0  0  0  0
    6.7338    3.2650    1.2683 H   0  0  0  0  0  0  0  0  0  0  0  0
    6.7175    1.5938    0.6247 H   0  0  0  0  0  0  0  0  0  0  0  0
    8.9094    1.1020    1.5342 H   0  0  0  0  0  0  0  0  0  0  0  0
    9.0641    2.7961    2.0369 H   0  0  0  0  0  0  0  0  0  0  0  0
    8.9676    2.2633   -2.1601 H   0  0  0  0  0  0  0  0  0  0  0  0
    7.5518    1.6653   -1.3284 H   0  0  0  0  0  0  0  0  0  0  0  0
    8.9737   -0.1004   -2.3991 H   0  0  0  0  0  0  0  0  0  0  0  0
    9.1310   -0.7027    0.6152 H   0  0  0  0  0  0  0  0  0  0  0  0
    9.1028   -1.7893   -0.7492 H   0  0  0  0  0  0  0  0  0  0  0  0
    7.6442   -0.7984   -0.3990 H   0  0  0  0  0  0  0  0  0  0  0  0
   11.1484    0.9672   -2.2434 H   0  0  0  0  0  0  0  0  0  0  0  0
   11.2675   -0.6180   -1.4079 H   0  0  0  0  0  0  0  0  0  0  0  0
   10.9524    0.5855    0.8186 H   0  0  0  0  0  0  0  0  0  0  0  0
   13.1663    1.8173   -0.9088 H   0  0  0  0  0  0  0  0  0  0  0  0
   13.2244    0.2358   -0.0291 H   0  0  0  0  0  0  0  0  0  0  0  0
   13.0875    1.7719    0.8995 H   0  0  0  0  0  0  0  0  0  0  0  0
   10.9473    3.1303   -0.9608 H   0  0  0  0  0  0  0  0  0  0  0  0
   10.9590    3.1294    0.8186 H   0  0  0  0  0  0  0  0  0  0  0  0
    6.5371   -0.7203    3.2793 H   0  0  0  0  0  0  0  0  0  0  0  0
    7.0088   -1.8111    5.1744 H   0  0  0  0  0  0  0  0  0  0  0  0
    8.6953   -1.5207    8.8874 H   0  0  0  0  0  0  0  0  0  0  0  0
   10.2828   -2.8221    8.8164 H   0  0  0  0  0  0  0  0  0  0  0  0
   12.5827   -2.8494   12.6218 H   0  0  0  0  0  0  0  0  0  0  0  0
   12.5035   -1.1404   13.0672 H   0  0  0  0  0  0  0  0  0  0  0  0
   13.9477   -1.8121   12.1410 H   0  0  0  0  0  0  0  0  0  0  0  0
   12.4225    0.5434   10.4668 H   0  0  0  0  0  0  0  0  0  0  0  0
    9.0220    2.6724    4.5435 H   0  0  0  0  0  0  0  0  0  0  0  0
    5.0234    0.4462    4.7703 H   0  0  0  0  0  0  0  0  0  0  0  0
    1.8339   -1.0767   -1.5987 H   0  0  0  0  0  0  0  0  0  0  0  0
  1  2  1  0  0  0  0
  1 39  1  0  0  0  0
  1 40  1  0  0  0  0
  1 41  1  0  0  0  0
  2  3  1  0  0  0  0
  3  4  1  0  0  0  0
  3 37  2  0  0  0  0
  4  5  2  0  0  0  0
  4 42  1  0  0  0  0
  5  6  1  0  0  0  0
  5  8  1  0  0  0  0
  6  7  1  0  0  0  0
  7 43  1  0  0  0  0
  7 44  1  0  0  0  0
  7 45  1  0  0  0  0
  8  9  2  0  0  0  0
  8 46  1  0  0  0  0
  9 10  1  0  0  0  0
  9 37  1  0  0  0  0
 10 11  1  0  0  0  0
 10 21  1  0  0  0  0
 11 12  1  0  0  0  0
 11 47  1  0  0  0  0
 11 48  1  0  0  0  0
 12 13  1  0  0  0  0
 12 49  1  0  0  0  0
 12 50  1  0  0  0  0
 13 14  1  0  0  0  0
 13 20  1  0  0  0  0
 14 15  1  0  0  0  0
 14 51  1  0  0  0  0
 14 52  1  0  0  0  0
 15 17  1  0  0  0  0
 15 16  1  0  0  0  0
 15 53  1  6  0  0  0
 16 54  1  0  0  0  0
 16 55  1  0  0  0  0
 16 56  1  0  0  0  0
 17 18  1  0  0  0  0
 17 57  1  0  0  0  0
 17 58  1  0  0  0  0
 18 19  1  0  0  0  0
 18 20  1  0  0  0  0
 18 59  1  1  0  0  0
 19 60  1  0  0  0  0
 19 61  1  0  0  0  0
 19 62  1  0  0  0  0
 20 63  1  0  0  0  0
 20 64  1  0  0  0  0
 21 22  1  0  0  0  0
 21 36  2  0  0  0  0
 22 23  2  0  0  0  0
 22 65  1  0  0  0  0
 23 24  1  0  0  0  0
 23 66  1  0  0  0  0
 24 25  1  0  0  0  0
 24 35  2  0  0  0  0
 25 26  2  0  0  0  0
 26 27  1  0  0  0  0
 26 67  1  0  0  0  0
 27 28  1  0  0  0  0
 27 34  2  0  0  0  0
 28 29  1  0  0  0  0
 28 33  2  0  0  0  0
 29 30  2  0  0  0  0
 29 68  1  0  0  0  0
 30 31  1  0  0  0  0
 31 32  1  0  0  0  0
 31 33  1  0  0  0  0
 32 69  1  0  0  0  0
 32 70  1  0  0  0  0
 32 71  1  0  0  0  0
 33 72  1  0  0  0  0
 34 35  1  0  0  0  0
 35 36  1  0  0  0  0
 36 73  1  0  0  0  0
 37 74  1  0  0  0  0
 38 75  1  0  0  0  0
M  END
$$$$
