CHEMBL3985254
 OpenBabel04072215373D

 54 57  0  0  1  0  0  0  0  0999 V2000
    1.6492   -0.7742   -1.2853 C   0  0  0  0  0  0  0  0  0  0  0  0
    2.3346   -0.1971   -0.1790 O   0  0  0  0  0  0  0  0  0  0  0  0
    3.0611   -0.9993    0.6555 C   0  0  0  0  0  0  0  0  0  0  0  0
    4.1921   -0.3697    1.1956 C   0  0  0  0  0  0  0  0  0  0  0  0
    5.0290   -1.0253    2.1390 C   0  0  0  0  0  0  0  0  0  0  0  0
    6.1634   -0.4916    2.7684 C   0  0  0  0  0  0  0  0  0  0  0  0
    6.5255    0.8658    2.5508 N   0  0  0  0  0  0  0  0  0  0  0  0
    7.8267    1.3552    2.8197 C   0  0  0  0  0  0  0  0  0  0  0  0
    8.9381    0.6533    2.3440 C   0  0  0  0  0  0  0  0  0  0  0  0
   10.2348    1.0458    2.6730 C   0  0  0  0  0  0  0  0  0  0  0  0
   10.4307    2.1646    3.4804 C   0  0  0  0  0  0  0  0  0  0  0  0
   12.0540    2.5632    3.9138 Cl  0  0  0  0  0  0  0  0  0  0  0  0
    9.3264    2.9047    3.9238 C   0  0  0  0  0  0  0  0  0  0  0  0
    9.5018    4.3073    4.9206 Cl  0  0  0  0  0  0  0  0  0  0  0  0
    8.0252    2.5066    3.5866 C   0  0  0  0  0  0  0  0  0  0  0  0
    6.9341   -1.2240    3.6026 N   0  0  0  0  0  0  0  0  0  0  0  0
    6.5654   -2.4812    3.8286 C   0  0  0  0  0  0  0  0  0  0  0  0
    5.4898   -3.0764    3.3180 N   0  0  0  0  0  0  0  0  0  0  0  0
    4.7466   -2.3440    2.4845 C   0  0  0  0  0  0  0  0  0  0  0  0
    3.6266   -2.9457    1.9623 C   0  0  0  0  0  0  0  0  0  0  0  0
    2.7386   -2.2839    1.1004 C   0  0  0  0  0  0  0  0  0  0  0  0
    1.5473   -2.8611    0.7312 O   0  0  0  0  0  0  0  0  0  0  0  0
    1.1079   -3.9108    1.5956 C   0  0  0  0  0  0  0  0  0  0  0  0
   -0.3622   -4.2426    1.3930 C   0  0  3  0  0  0  0  0  0  0  0  0
   -1.2221   -2.9853    1.6073 C   0  0  0  0  0  0  0  0  0  0  0  0
   -2.6419   -3.3364    1.6770 N   0  0  0  0  0  0  0  0  0  0  0  0
   -3.5263   -2.6907    0.8414 C   0  0  0  0  0  0  0  0  0  0  0  0
   -4.9914   -3.0457    0.8821 C   0  0  0  0  0  0  0  0  0  0  0  0
   -3.1587   -1.8252    0.0439 O   0  0  0  0  0  0  0  0  0  0  0  0
   -2.9215   -4.4027    2.6445 C   0  0  0  0  0  0  0  0  0  0  0  0
   -2.0588   -5.6254    2.3242 C   0  0  0  0  0  0  0  0  0  0  0  0
   -0.6716   -5.2775    2.3543 O   0  0  0  0  0  0  0  0  0  0  0  0
    0.6824   -0.2691   -1.3724 H   0  0  0  0  0  0  0  0  0  0  0  0
    1.4700   -1.8476   -1.2375 H   0  0  0  0  0  0  0  0  0  0  0  0
    2.2152   -0.5713   -2.2004 H   0  0  0  0  0  0  0  0  0  0  0  0
    4.4335    0.6414    0.8714 H   0  0  0  0  0  0  0  0  0  0  0  0
    5.7835    1.4671    2.8967 H   0  0  0  0  0  0  0  0  0  0  0  0
    8.7987   -0.2370    1.7303 H   0  0  0  0  0  0  0  0  0  0  0  0
   11.0776    0.4599    2.3170 H   0  0  0  0  0  0  0  0  0  0  0  0
    7.1764    3.0754    3.9589 H   0  0  0  0  0  0  0  0  0  0  0  0
    7.1911   -3.0772    4.4842 H   0  0  0  0  0  0  0  0  0  0  0  0
    3.4487   -3.9677    2.2844 H   0  0  0  0  0  0  0  0  0  0  0  0
    1.2354   -3.6227    2.6492 H   0  0  0  0  0  0  0  0  0  0  0  0
    1.6939   -4.8197    1.4099 H   0  0  0  0  0  0  0  0  0  0  0  0
   -0.5249   -4.6402    0.3830 H   0  0  0  0  0  0  0  0  0  0  0  0
   -1.0223   -2.2531    0.8190 H   0  0  0  0  0  0  0  0  0  0  0  0
   -0.9754   -2.5136    2.5669 H   0  0  0  0  0  0  0  0  0  0  0  0
   -5.2620   -3.8263    1.5857 H   0  0  0  0  0  0  0  0  0  0  0  0
   -5.2904   -3.3808   -0.1156 H   0  0  0  0  0  0  0  0  0  0  0  0
   -5.5570   -2.1472    1.1463 H   0  0  0  0  0  0  0  0  0  0  0  0
   -3.9682   -4.6915    2.6802 H   0  0  0  0  0  0  0  0  0  0  0  0
   -2.6479   -4.0056    3.6303 H   0  0  0  0  0  0  0  0  0  0  0  0
   -2.2995   -6.0396    1.3387 H   0  0  0  0  0  0  0  0  0  0  0  0
   -2.2195   -6.4081    3.0718 H   0  0  0  0  0  0  0  0  0  0  0  0
  1  2  1  0  0  0  0
  1 33  1  0  0  0  0
  1 34  1  0  0  0  0
  1 35  1  0  0  0  0
  2  3  1  0  0  0  0
  3  4  1  0  0  0  0
  3 21  2  0  0  0  0
  4  5  2  0  0  0  0
  4 36  1  0  0  0  0
  5  6  1  0  0  0  0
  5 19  1  0  0  0  0
  6  7  1  0  0  0  0
  6 16  2  0  0  0  0
  7  8  1  0  0  0  0
  7 37  1  0  0  0  0
  8  9  1  0  0  0  0
  8 15  2  0  0  0  0
  9 10  2  0  0  0  0
  9 38  1  0  0  0  0
 10 11  1  0  0  0  0
 10 39  1  0  0  0  0
 11 12  1  0  0  0  0
 11 13  2  0  0  0  0
 13 14  1  0  0  0  0
 13 15  1  0  0  0  0
 15 40  1  0  0  0  0
 16 17  1  0  0  0  0
 17 18  2  0  0  0  0
 17 41  1  0  0  0  0
 18 19  1  0  0  0  0
 19 20  2  0  0  0  0
 20 21  1  0  0  0  0
 20 42  1  0  0  0  0
 21 22  1  0  0  0  0
 22 23  1  0  0  0  0
 23 24  1  0  0  0  0
 23 43  1  0  0  0  0
 23 44  1  0  0  0  0
 24 25  1  0  0  0  0
 24 32  1  0  0  0  0
 24 45  1  0  0  0  0
 25 26  1  0  0  0  0
 25 46  1  0  0  0  0
 25 47  1  0  0  0  0
 26 27  1  0  0  0  0
 26 30  1  0  0  0  0
 27 28  1  0  0  0  0
 27 29  2  0  0  0  0
 28 48  1  0  0  0  0
 28 49  1  0  0  0  0
 28 50  1  0  0  0  0
 30 31  1  0  0  0  0
 30 51  1  0  0  0  0
 30 52  1  0  0  0  0
 31 32  1  0  0  0  0
 31 53  1  0  0  0  0
 31 54  1  0  0  0  0
M  END
$$$$
