CHEMBL1945173
 OpenBabel04072215363D

 58 61  0  0  0  0  0  0  0  0999 V2000
    1.0558    0.3126    0.0063 C   0  0  0  0  0  0  0  0  0  0  0  0
    2.3373   -0.3149   -0.0674 O   0  0  0  0  0  0  0  0  0  0  0  0
    3.0701   -0.0584   -1.2058 C   0  0  0  0  0  0  0  0  0  0  0  0
    2.7459    0.9628   -2.1195 C   0  0  0  0  0  0  0  0  0  0  0  0
    3.4881    1.1471   -3.2875 C   0  0  0  0  0  0  0  0  0  0  0  0
    4.5773    0.3270   -3.5593 C   0  0  0  0  0  0  0  0  0  0  0  0
    5.3263    0.4295   -4.8628 C   0  0  0  0  0  0  0  0  0  0  0  0
    4.7835   -0.5100   -5.9461 C   0  0  0  0  0  0  0  0  0  0  0  0
    3.3676   -0.1768   -6.4480 C   0  0  0  0  0  0  0  0  0  0  0  0
    3.1941    1.2084   -6.9212 N   0  0  0  0  0  0  0  0  0  0  0  0
    4.0182    1.4955   -8.0959 C   0  0  0  0  0  0  0  0  0  0  0  0
    1.7839    1.4607   -7.2270 C   0  0  0  0  0  0  0  0  0  0  0  0
    4.9365   -0.6498   -2.6232 C   0  0  0  0  0  0  0  0  0  0  0  0
    4.1899   -0.8844   -1.4551 C   0  0  0  0  0  0  0  0  0  0  0  0
    4.5582   -1.9522   -0.5866 N   0  0  0  0  0  0  0  0  0  0  0  0
    4.9737   -3.2368   -0.9896 C   0  0  0  0  0  0  0  0  0  0  0  0
    5.0879   -3.4868   -2.3071 N   0  0  0  0  0  0  0  0  0  0  0  0
    4.9466   -4.7369   -2.7297 C   0  0  0  0  0  0  0  0  0  0  0  0
    4.7740   -5.7673   -1.8511 C   0  0  0  0  0  0  0  0  0  0  0  0
    5.0339   -5.4856   -0.5273 C   0  0  0  0  0  0  0  0  0  0  0  0
    5.0661   -4.2163   -0.0621 N   0  0  0  0  0  0  0  0  0  0  0  0
    4.9924   -6.5977    0.4402 C   0  0  0  0  0  0  0  0  0  0  0  0
    6.1645   -7.1889    0.9427 C   0  0  0  0  0  0  0  0  0  0  0  0
    6.0914   -8.2986    1.7948 C   0  0  0  0  0  0  0  0  0  0  0  0
    4.8483   -8.7600    2.2261 C   0  0  0  0  0  0  0  0  0  0  0  0
    4.7566  -10.1071    3.2936 Cl  0  0  0  0  0  0  0  0  0  0  0  0
    3.6750   -8.1991    1.7303 C   0  0  0  0  0  0  0  0  0  0  0  0
    3.7634   -7.2154    0.7438 C   0  0  0  0  0  0  0  0  0  0  0  0
    2.6197   -7.0009   -0.0551 N   0  0  0  0  0  0  0  0  0  0  0  0
    2.6394   -6.8988   -1.4332 C   0  0  0  0  0  0  0  0  0  0  0  0
    1.1936   -6.7036   -2.2543 S   0  0  0  0  0  0  0  0  0  0  0  0
    3.9782   -6.9948   -2.1939 C   0  0  0  0  0  0  0  0  0  0  0  0
    0.5749    0.0129    0.9389 H   0  0  0  0  0  0  0  0  0  0  0  0
    0.4131   -0.0094   -0.8225 H   0  0  0  0  0  0  0  0  0  0  0  0
    1.1392    1.4076    0.0279 H   0  0  0  0  0  0  0  0  0  0  0  0
    1.9036    1.6291   -1.9688 H   0  0  0  0  0  0  0  0  0  0  0  0
    3.1939    1.9183   -3.9981 H   0  0  0  0  0  0  0  0  0  0  0  0
    6.3775    0.1723   -4.6771 H   0  0  0  0  0  0  0  0  0  0  0  0
    5.3394    1.4696   -5.2090 H   0  0  0  0  0  0  0  0  0  0  0  0
    4.7758   -1.5437   -5.5708 H   0  0  0  0  0  0  0  0  0  0  0  0
    5.4799   -0.5075   -6.7932 H   0  0  0  0  0  0  0  0  0  0  0  0
    2.6631   -0.3688   -5.6273 H   0  0  0  0  0  0  0  0  0  0  0  0
    3.1024   -0.8858   -7.2440 H   0  0  0  0  0  0  0  0  0  0  0  0
    5.0837    1.4558   -7.8489 H   0  0  0  0  0  0  0  0  0  0  0  0
    3.8327    2.5133   -8.4575 H   0  0  0  0  0  0  0  0  0  0  0  0
    3.8238    0.7978   -8.9180 H   0  0  0  0  0  0  0  0  0  0  0  0
    1.1612    1.3014   -6.3394 H   0  0  0  0  0  0  0  0  0  0  0  0
    1.4131    0.8153   -8.0313 H   0  0  0  0  0  0  0  0  0  0  0  0
    1.6366    2.5048   -7.5254 H   0  0  0  0  0  0  0  0  0  0  0  0
    5.8072   -1.2633   -2.8315 H   0  0  0  0  0  0  0  0  0  0  0  0
    3.9766   -2.0243    0.2390 H   0  0  0  0  0  0  0  0  0  0  0  0
    4.8631   -4.8605   -3.8019 H   0  0  0  0  0  0  0  0  0  0  0  0
    7.1420   -6.8362    0.6162 H   0  0  0  0  0  0  0  0  0  0  0  0
    7.0016   -8.8057    2.1072 H   0  0  0  0  0  0  0  0  0  0  0  0
    2.7136   -8.6145    2.0162 H   0  0  0  0  0  0  0  0  0  0  0  0
    1.7048   -7.1490    0.3581 H   0  0  0  0  0  0  0  0  0  0  0  0
    3.8213   -7.0590   -3.2726 H   0  0  0  0  0  0  0  0  0  0  0  0
    4.5154   -7.9048   -1.9019 H   0  0  0  0  0  0  0  0  0  0  0  0
  1  2  1  0  0  0  0
  1 33  1  0  0  0  0
  1 34  1  0  0  0  0
  1 35  1  0  0  0  0
  2  3  1  0  0  0  0
  3  4  1  0  0  0  0
  3 14  2  0  0  0  0
  4  5  2  0  0  0  0
  4 36  1  0  0  0  0
  5  6  1  0  0  0  0
  5 37  1  0  0  0  0
  6  7  1  0  0  0  0
  6 13  2  0  0  0  0
  7  8  1  0  0  0  0
  7 38  1  0  0  0  0
  7 39  1  0  0  0  0
  8  9  1  0  0  0  0
  8 40  1  0  0  0  0
  8 41  1  0  0  0  0
  9 10  1  0  0  0  0
  9 42  1  0  0  0  0
  9 43  1  0  0  0  0
 10 11  1  0  0  0  0
 10 12  1  0  0  0  0
 11 44  1  0  0  0  0
 11 45  1  0  0  0  0
 11 46  1  0  0  0  0
 12 47  1  0  0  0  0
 12 48  1  0  0  0  0
 12 49  1  0  0  0  0
 13 14  1  0  0  0  0
 13 50  1  0  0  0  0
 14 15  1  0  0  0  0
 15 16  1  0  0  0  0
 15 51  1  0  0  0  0
 16 17  1  0  0  0  0
 16 21  2  0  0  0  0
 17 18  2  0  0  0  0
 18 19  1  0  0  0  0
 18 52  1  0  0  0  0
 19 20  2  0  0  0  0
 19 32  1  0  0  0  0
 20 21  1  0  0  0  0
 20 22  1  0  0  0  0
 22 23  1  0  0  0  0
 22 28  2  0  0  0  0
 23 24  2  0  0  0  0
 23 53  1  0  0  0  0
 24 25  1  0  0  0  0
 24 54  1  0  0  0  0
 25 26  1  0  0  0  0
 25 27  2  0  0  0  0
 27 28  1  0  0  0  0
 27 55  1  0  0  0  0
 28 29  1  0  0  0  0
 29 30  1  0  0  0  0
 29 56  1  0  0  0  0
 30 31  2  0  0  0  0
 30 32  1  0  0  0  0
 32 57  1  0  0  0  0
 32 58  1  0  0  0  0
M  END
$$$$
