CHEMBL1688250
 OpenBabel04072215363D

 50 53  0  0  1  0  0  0  0  0999 V2000
    2.9963    1.9240   -7.5096 C   0  0  0  0  0  0  0  0  0  0  0  0
    4.6390    2.5841   -7.5366 S   0  0  0  0  0  0  0  0  0  0  0  0
    5.5733    1.4825   -7.4080 O   0  0  0  0  0  0  0  0  0  0  0  0
    4.7304    3.5089   -8.6548 O   0  0  0  0  0  0  0  0  0  0  0  0
    4.7329    3.5495   -6.0457 C   0  0  0  0  0  0  0  0  0  0  0  0
    5.2166    2.9769   -4.8703 C   0  0  0  0  0  0  0  0  0  0  0  0
    5.3343    3.7705   -3.7195 C   0  0  0  0  0  0  0  0  0  0  0  0
    4.9817    5.1291   -3.7341 C   0  0  0  0  0  0  0  0  0  0  0  0
    5.1476    5.9389   -2.5238 C   0  0  0  0  0  0  0  0  0  0  0  0
    5.6271    5.5432   -1.3590 N   0  0  0  0  0  0  0  0  0  0  0  0
    5.7033    6.6351   -0.5223 N   0  0  0  0  0  0  0  0  0  0  0  0
    5.2496    7.6876   -1.1742 C   0  0  0  0  0  0  0  0  0  0  0  0
    5.2644    9.0856   -0.7487 C   0  0  0  0  0  0  0  0  0  0  0  0
    6.2295    9.4804    0.1892 C   0  0  0  0  0  0  0  0  0  0  0  0
    6.3664   10.8190    0.5302 C   0  0  0  0  0  0  0  0  0  0  0  0
    5.5197   11.7262   -0.0731 C   0  0  0  0  0  0  0  0  0  0  0  0
    4.5694   11.3874   -0.9733 N   0  0  0  0  0  0  0  0  0  0  0  0
    4.4399   10.0829   -1.3114 C   0  0  0  0  0  0  0  0  0  0  0  0
    3.4465    9.7256   -2.2588 N   0  0  0  0  0  0  0  0  0  0  0  0
    2.8436   10.8805   -2.9492 C   0  0  0  0  0  0  0  0  0  0  0  0
    2.0655   10.4119   -4.1915 C   0  0  3  0  0  0  0  0  0  0  0  0
    1.6030   11.6312   -5.0053 C   0  0  0  0  0  0  0  0  0  0  0  0
    0.8391   11.2233   -6.1493 O   0  0  0  0  0  0  0  0  0  0  0  0
   -0.2960   10.4538   -5.7302 C   0  0  0  0  0  0  0  0  0  0  0  0
    0.1666    9.2259   -4.9482 C   0  0  0  0  0  0  0  0  0  0  0  0
    0.9245    9.6195   -3.7903 O   0  0  0  0  0  0  0  0  0  0  0  0
    4.8489    7.2719   -2.4164 N   0  0  0  0  0  0  0  0  0  0  0  0
    4.5087    5.6819   -4.9346 C   0  0  0  0  0  0  0  0  0  0  0  0
    4.3864    4.9013   -6.0876 C   0  0  0  0  0  0  0  0  0  0  0  0
    2.8412    1.3660   -8.4365 H   0  0  0  0  0  0  0  0  0  0  0  0
    2.2792    2.7462   -7.4530 H   0  0  0  0  0  0  0  0  0  0  0  0
    2.8912    1.2561   -6.6526 H   0  0  0  0  0  0  0  0  0  0  0  0
    5.5233    1.9342   -4.8370 H   0  0  0  0  0  0  0  0  0  0  0  0
    5.7274    3.3186   -2.8065 H   0  0  0  0  0  0  0  0  0  0  0  0
    6.9021    8.7430    0.6244 H   0  0  0  0  0  0  0  0  0  0  0  0
    7.1255   11.1423    1.2334 H   0  0  0  0  0  0  0  0  0  0  0  0
    5.5870   12.7870    0.1518 H   0  0  0  0  0  0  0  0  0  0  0  0
    2.7162    9.2225   -1.7459 H   0  0  0  0  0  0  0  0  0  0  0  0
    3.6319   11.5670   -3.2875 H   0  0  0  0  0  0  0  0  0  0  0  0
    2.1724   11.4127   -2.2637 H   0  0  0  0  0  0  0  0  0  0  0  0
    2.7069    9.7711   -4.8107 H   0  0  0  0  0  0  0  0  0  0  0  0
    2.4651   12.1992   -5.3693 H   0  0  0  0  0  0  0  0  0  0  0  0
    0.9837   12.3027   -4.3989 H   0  0  0  0  0  0  0  0  0  0  0  0
   -0.8526   10.1565   -6.6236 H   0  0  0  0  0  0  0  0  0  0  0  0
   -0.9434   11.0906   -5.1159 H   0  0  0  0  0  0  0  0  0  0  0  0
    0.7960    8.5816   -5.5739 H   0  0  0  0  0  0  0  0  0  0  0  0
   -0.6942    8.6418   -4.6104 H   0  0  0  0  0  0  0  0  0  0  0  0
    4.4639    7.8837   -3.1206 H   0  0  0  0  0  0  0  0  0  0  0  0
    4.2465    6.7357   -5.0078 H   0  0  0  0  0  0  0  0  0  0  0  0
    4.0445    5.3612   -7.0121 H   0  0  0  0  0  0  0  0  0  0  0  0
  1  2  1  0  0  0  0
  1 30  1  0  0  0  0
  1 31  1  0  0  0  0
  1 32  1  0  0  0  0
  2  3  2  0  0  0  0
  2  4  2  0  0  0  0
  2  5  1  0  0  0  0
  5  6  1  0  0  0  0
  5 29  2  0  0  0  0
  6  7  2  0  0  0  0
  6 33  1  0  0  0  0
  7  8  1  0  0  0  0
  7 34  1  0  0  0  0
  8  9  1  0  0  0  0
  8 28  2  0  0  0  0
  9 10  2  0  0  0  0
  9 27  1  0  0  0  0
 10 11  1  0  0  0  0
 11 12  2  0  0  0  0
 12 13  1  0  0  0  0
 12 27  1  0  0  0  0
 13 14  1  0  0  0  0
 13 18  2  0  0  0  0
 14 15  2  0  0  0  0
 14 35  1  0  0  0  0
 15 16  1  0  0  0  0
 15 36  1  0  0  0  0
 16 17  2  0  0  0  0
 16 37  1  0  0  0  0
 17 18  1  0  0  0  0
 18 19  1  0  0  0  0
 19 20  1  0  0  0  0
 19 38  1  0  0  0  0
 20 21  1  0  0  0  0
 20 39  1  0  0  0  0
 20 40  1  0  0  0  0
 21 22  1  0  0  0  0
 21 26  1  0  0  0  0
 21 41  1  0  0  0  0
 22 23  1  0  0  0  0
 22 42  1  0  0  0  0
 22 43  1  0  0  0  0
 23 24  1  0  0  0  0
 24 25  1  0  0  0  0
 24 44  1  0  0  0  0
 24 45  1  0  0  0  0
 25 26  1  0  0  0  0
 25 46  1  0  0  0  0
 25 47  1  0  0  0  0
 27 48  1  0  0  0  0
 28 29  1  0  0  0  0
 28 49  1  0  0  0  0
 29 50  1  0  0  0  0
M  END
$$$$
