CHEMBL1940857
 OpenBabel04072215363D

 33 35  0  0  0  0  0  0  0  0999 V2000
    0.8406    0.0575   -0.0239 C   0  0  0  0  0  0  0  0  0  0  0  0
    2.3373    0.0778    0.0555 C   0  0  0  0  0  0  0  0  0  0  0  0
    3.0579    1.2714    0.0516 C   0  0  0  0  0  0  0  0  0  0  0  0
    4.4520    1.2489    0.1345 C   0  0  0  0  0  0  0  0  0  0  0  0
    5.1437    0.0242    0.2071 C   0  0  0  0  0  0  0  0  0  0  0  0
    6.5478   -0.0497    0.2612 C   0  0  0  0  0  0  0  0  0  0  0  0
    7.2070   -1.2877    0.2829 C   0  0  0  0  0  0  0  0  0  0  0  0
    8.6850   -1.2676    0.2563 C   0  0  0  0  0  0  0  0  0  0  0  0
    9.4883   -2.1798    0.8259 C   0  0  0  0  0  0  0  0  0  0  0  0
   10.9714   -2.0711    0.7247 C   0  0  0  0  0  0  0  0  0  0  0  0
   11.5300   -1.0134    0.4640 O   0  0  0  0  0  0  0  0  0  0  0  0
   11.6608   -3.3359    0.9731 C   0  0  0  0  0  0  0  0  0  0  0  0
   11.1748   -4.6578    0.6405 C   0  0  0  0  0  0  0  0  0  0  0  0
   12.0602   -5.6406    1.0021 C   0  0  0  0  0  0  0  0  0  0  0  0
   11.8515   -7.3312    0.7950 Cl  0  0  0  0  0  0  0  0  0  0  0  0
   13.4683   -5.0411    1.7136 S   0  0  0  0  0  0  0  0  0  0  0  0
   12.9110   -3.4417    1.5523 C   0  0  0  0  0  0  0  0  0  0  0  0
   13.9205   -2.1860    2.1623 Cl  0  0  0  0  0  0  0  0  0  0  0  0
    6.3744   -2.4102    0.2456 C   0  0  0  0  0  0  0  0  0  0  0  0
    6.9399   -4.0369    0.1271 Cl  0  0  0  0  0  0  0  0  0  0  0  0
    5.0225   -2.3777    0.2322 N   0  0  0  0  0  0  0  0  0  0  0  0
    4.4215   -1.1814    0.2058 C   0  0  0  0  0  0  0  0  0  0  0  0
    3.0381   -1.1359    0.1482 C   0  0  0  0  0  0  0  0  0  0  0  0
    0.4343    1.0540   -0.2267 H   0  0  0  0  0  0  0  0  0  0  0  0
    0.4185   -0.2996    0.9208 H   0  0  0  0  0  0  0  0  0  0  0  0
    0.5137   -0.6042   -0.8333 H   0  0  0  0  0  0  0  0  0  0  0  0
    2.5418    2.2268   -0.0249 H   0  0  0  0  0  0  0  0  0  0  0  0
    4.9958    2.1920    0.1275 H   0  0  0  0  0  0  0  0  0  0  0  0
    7.1270    0.8729    0.2724 H   0  0  0  0  0  0  0  0  0  0  0  0
    9.1317   -0.4193   -0.2640 H   0  0  0  0  0  0  0  0  0  0  0  0
    9.1032   -3.0225    1.3845 H   0  0  0  0  0  0  0  0  0  0  0  0
   10.2302   -4.8705    0.1535 H   0  0  0  0  0  0  0  0  0  0  0  0
    2.4881   -2.0738    0.1571 H   0  0  0  0  0  0  0  0  0  0  0  0
  1  2  1  0  0  0  0
  1 24  1  0  0  0  0
  1 25  1  0  0  0  0
  1 26  1  0  0  0  0
  2  3  1  0  0  0  0
  2 23  2  0  0  0  0
  3  4  2  0  0  0  0
  3 27  1  0  0  0  0
  4  5  1  0  0  0  0
  4 28  1  0  0  0  0
  5  6  1  0  0  0  0
  5 22  2  0  0  0  0
  6  7  2  0  0  0  0
  6 29  1  0  0  0  0
  7  8  1  0  0  0  0
  7 19  1  0  0  0  0
  8  9  2  0  0  0  0
  8 30  1  0  0  0  0
  9 10  1  0  0  0  0
  9 31  1  0  0  0  0
 10 11  2  0  0  0  0
 10 12  1  0  0  0  0
 12 13  1  0  0  0  0
 12 17  2  0  0  0  0
 13 14  2  0  0  0  0
 13 32  1  0  0  0  0
 14 15  1  0  0  0  0
 14 16  1  0  0  0  0
 16 17  1  0  0  0  0
 17 18  1  0  0  0  0
 19 20  1  0  0  0  0
 19 21  2  0  0  0  0
 21 22  1  0  0  0  0
 22 23  1  0  0  0  0
 23 33  1  0  0  0  0
M  END
$$$$
