CHEMBL205283
 OpenBabel04072215363D

 41 44  0  0  0  0  0  0  0  0999 V2000
    1.3245    1.9282    1.6010 C   0  0  0  0  0  0  0  0  0  0  0  0
    2.7442    1.8449    1.4895 O   0  0  0  0  0  0  0  0  0  0  0  0
    3.1897    1.1363    0.4098 C   0  0  0  0  0  0  0  0  0  0  0  0
    2.4607    0.6004   -0.4128 O   0  0  0  0  0  0  0  0  0  0  0  0
    4.6502    1.0868    0.3461 C   0  0  0  0  0  0  0  0  0  0  0  0
    5.5057    1.6448    1.2831 C   0  0  0  0  0  0  0  0  0  0  0  0
    6.7902    1.4005    0.9070 N   0  0  0  0  0  0  0  0  0  0  0  0
    7.8811    1.7952    1.5853 N   0  0  0  0  0  0  0  0  0  0  0  0
    9.0052    1.4633    1.0329 C   0  0  0  0  0  0  0  0  0  0  0  0
    9.1697    0.7876   -0.1455 N   0  0  0  0  0  0  0  0  0  0  0  0
    8.1007    0.4392   -0.7811 C   0  0  0  0  0  0  0  0  0  0  0  0
    8.0938   -0.1872   -2.0162 O   0  0  0  0  0  0  0  0  0  0  0  0
    9.2188   -0.0272   -2.8540 C   0  0  0  0  0  0  0  0  0  0  0  0
    9.8428    1.2140   -2.9919 C   0  0  0  0  0  0  0  0  0  0  0  0
   10.9218    1.3752   -3.8589 C   0  0  0  0  0  0  0  0  0  0  0  0
   11.3162    0.2635   -4.6088 C   0  0  0  0  0  0  0  0  0  0  0  0
   12.3236    0.1430   -5.5373 N   0  0  0  0  0  0  0  0  0  0  0  0
   12.3494   -1.1259   -6.0571 C   0  0  0  0  0  0  0  0  0  0  0  0
   13.3303   -1.5291   -7.0937 C   0  0  0  0  0  0  0  0  0  0  0  0
   11.3437   -1.8418   -5.4380 C   0  0  0  0  0  0  0  0  0  0  0  0
   10.6854   -0.9778   -4.5176 C   0  0  0  0  0  0  0  0  0  0  0  0
    9.6078   -1.1308   -3.6210 C   0  0  0  0  0  0  0  0  0  0  0  0
    6.8023    0.7113   -0.2680 C   0  0  0  0  0  0  0  0  0  0  0  0
    5.4894    0.4844   -0.6631 C   0  0  0  0  0  0  0  0  0  0  0  0
    4.9882   -0.2186   -1.8793 C   0  0  0  0  0  0  0  0  0  0  0  0
    1.0922    2.6360    2.4024 H   0  0  0  0  0  0  0  0  0  0  0  0
    0.9114    0.9517    1.8695 H   0  0  0  0  0  0  0  0  0  0  0  0
    0.8768    2.3009    0.6748 H   0  0  0  0  0  0  0  0  0  0  0  0
    5.3028    2.1971    2.1908 H   0  0  0  0  0  0  0  0  0  0  0  0
    9.9360    1.7626    1.5446 H   0  0  0  0  0  0  0  0  0  0  0  0
    9.5014    2.0737   -2.4227 H   0  0  0  0  0  0  0  0  0  0  0  0
   11.4219    2.3333   -3.9503 H   0  0  0  0  0  0  0  0  0  0  0  0
   12.9449    0.8953   -5.8009 H   0  0  0  0  0  0  0  0  0  0  0  0
   13.9893   -0.6990   -7.3699 H   0  0  0  0  0  0  0  0  0  0  0  0
   12.8128   -1.8641   -7.9980 H   0  0  0  0  0  0  0  0  0  0  0  0
   13.9553   -2.3493   -6.7276 H   0  0  0  0  0  0  0  0  0  0  0  0
   11.1022   -2.8796   -5.6288 H   0  0  0  0  0  0  0  0  0  0  0  0
    9.0902   -2.0802   -3.5335 H   0  0  0  0  0  0  0  0  0  0  0  0
    5.7898   -0.5636   -2.5340 H   0  0  0  0  0  0  0  0  0  0  0  0
    4.3525    0.4512   -2.4679 H   0  0  0  0  0  0  0  0  0  0  0  0
    4.3976   -1.0949   -1.5931 H   0  0  0  0  0  0  0  0  0  0  0  0
  1  2  1  0  0  0  0
  1 26  1  0  0  0  0
  1 27  1  0  0  0  0
  1 28  1  0  0  0  0
  2  3  1  0  0  0  0
  3  4  2  0  0  0  0
  3  5  1  0  0  0  0
  5  6  2  0  0  0  0
  5 24  1  0  0  0  0
  6  7  1  0  0  0  0
  6 29  1  0  0  0  0
  7  8  1  0  0  0  0
  7 23  1  0  0  0  0
  8  9  2  0  0  0  0
  9 10  1  0  0  0  0
  9 30  1  0  0  0  0
 10 11  2  0  0  0  0
 11 12  1  0  0  0  0
 11 23  1  0  0  0  0
 12 13  1  0  0  0  0
 13 14  1  0  0  0  0
 13 22  2  0  0  0  0
 14 15  2  0  0  0  0
 14 31  1  0  0  0  0
 15 16  1  0  0  0  0
 15 32  1  0  0  0  0
 16 17  1  0  0  0  0
 16 21  2  0  0  0  0
 17 18  1  0  0  0  0
 17 33  1  0  0  0  0
 18 19  1  0  0  0  0
 18 20  2  0  0  0  0
 19 34  1  0  0  0  0
 19 35  1  0  0  0  0
 19 36  1  0  0  0  0
 20 21  1  0  0  0  0
 20 37  1  0  0  0  0
 21 22  1  0  0  0  0
 22 38  1  0  0  0  0
 23 24  2  0  0  0  0
 24 25  1  0  0  0  0
 25 39  1  0  0  0  0
 25 40  1  0  0  0  0
 25 41  1  0  0  0  0
M  END
$$$$
