CHEMBL258694
 OpenBabel04072215363D

 46 50  0  0  0  0  0  0  0  0999 V2000
   -1.9371   -0.1502    1.1164 C   0  0  0  0  0  0  0  0  0  0  0  0
   -0.6216   -0.0763    0.4622 C   0  0  0  0  0  0  0  0  0  0  0  0
   -0.1551   -0.7848   -0.5396 N   0  0  0  0  0  0  0  0  0  0  0  0
    1.0702   -0.2443   -0.8460 N   0  0  0  0  0  0  0  0  0  0  0  0
    1.2870    0.7530   -0.0087 C   0  0  0  0  0  0  0  0  0  0  0  0
    2.4840    1.6519   -0.0510 C   0  0  0  0  0  0  0  0  0  0  0  0
    2.7289    2.5994    0.9102 C   0  0  0  0  0  0  0  0  0  0  0  0
    3.8620    3.2662    0.5611 N   0  0  0  0  0  0  0  0  0  0  0  0
    4.3931    4.2510    1.2978 N   0  0  0  0  0  0  0  0  0  0  0  0
    5.4292    4.8044    0.7619 C   0  0  0  0  0  0  0  0  0  0  0  0
    5.9797    4.4917   -0.4447 N   0  0  0  0  0  0  0  0  0  0  0  0
    5.4820    3.5283   -1.1694 C   0  0  0  0  0  0  0  0  0  0  0  0
    6.0777    3.2401   -2.3797 N   0  0  0  0  0  0  0  0  0  0  0  0
    6.6727    4.2205   -3.2120 C   0  0  0  0  0  0  0  0  0  0  0  0
    7.7405    3.8951   -4.0610 C   0  0  0  0  0  0  0  0  0  0  0  0
    8.3556    4.7140   -4.9537 N   0  0  0  0  0  0  0  0  0  0  0  0
    7.8113    5.9433   -4.9830 C   0  0  0  0  0  0  0  0  0  0  0  0
    8.2303    6.9617   -5.7935 N   0  0  0  0  0  0  0  0  0  0  0  0
    7.4529    8.0733   -5.5863 C   0  0  0  0  0  0  0  0  0  0  0  0
    6.5215    7.7597   -4.6203 C   0  0  0  0  0  0  0  0  0  0  0  0
    6.7433    6.4120   -4.2269 C   0  0  0  0  0  0  0  0  0  0  0  0
    6.1479    5.5162   -3.3222 C   0  0  0  0  0  0  0  0  0  0  0  0
    4.3424    2.8077   -0.6421 C   0  0  0  0  0  0  0  0  0  0  0  0
    3.5185    1.7510   -1.0612 C   0  0  0  0  0  0  0  0  0  0  0  0
    3.4993    0.8958   -2.3200 C   0  0  0  0  0  0  0  0  0  0  0  0
    2.5953    1.5090   -3.3933 C   0  0  0  0  0  0  0  0  0  0  0  0
    4.8341    0.4701   -2.9125 C   0  0  0  0  0  0  0  0  0  0  0  0
    0.2441    0.8959    0.8823 O   0  0  0  0  0  0  0  0  0  0  0  0
   -2.4483   -1.0785    0.8430 H   0  0  0  0  0  0  0  0  0  0  0  0
   -2.5623    0.6874    0.7925 H   0  0  0  0  0  0  0  0  0  0  0  0
   -1.8410   -0.1155    2.2047 H   0  0  0  0  0  0  0  0  0  0  0  0
    2.1954    2.8675    1.8115 H   0  0  0  0  0  0  0  0  0  0  0  0
    5.9305    5.6146    1.3185 H   0  0  0  0  0  0  0  0  0  0  0  0
    6.6389    2.3978   -2.3250 H   0  0  0  0  0  0  0  0  0  0  0  0
    8.1672    2.8945   -4.0421 H   0  0  0  0  0  0  0  0  0  0  0  0
    8.9980    6.8779   -6.4432 H   0  0  0  0  0  0  0  0  0  0  0  0
    7.6296    8.9847   -6.1421 H   0  0  0  0  0  0  0  0  0  0  0  0
    5.7597    8.4281   -4.2361 H   0  0  0  0  0  0  0  0  0  0  0  0
    5.2962    5.8357   -2.7326 H   0  0  0  0  0  0  0  0  0  0  0  0
    3.0502   -0.0627   -2.0382 H   0  0  0  0  0  0  0  0  0  0  0  0
    2.9479    2.5003   -3.6957 H   0  0  0  0  0  0  0  0  0  0  0  0
    1.5681    1.6204   -3.0271 H   0  0  0  0  0  0  0  0  0  0  0  0
    2.5562    0.8711   -4.2829 H   0  0  0  0  0  0  0  0  0  0  0  0
    5.2986    1.2598   -3.5013 H   0  0  0  0  0  0  0  0  0  0  0  0
    4.6760   -0.3591   -3.6139 H   0  0  0  0  0  0  0  0  0  0  0  0
    5.5283    0.1217   -2.1421 H   0  0  0  0  0  0  0  0  0  0  0  0
  1  2  1  0  0  0  0
  1 29  1  0  0  0  0
  1 30  1  0  0  0  0
  1 31  1  0  0  0  0
  2  3  2  0  0  0  0
  2 28  1  0  0  0  0
  3  4  1  0  0  0  0
  4  5  2  0  0  0  0
  5  6  1  0  0  0  0
  5 28  1  0  0  0  0
  6  7  2  0  0  0  0
  6 24  1  0  0  0  0
  7  8  1  0  0  0  0
  7 32  1  0  0  0  0
  8  9  1  0  0  0  0
  8 23  1  0  0  0  0
  9 10  2  0  0  0  0
 10 11  1  0  0  0  0
 10 33  1  0  0  0  0
 11 12  2  0  0  0  0
 12 13  1  0  0  0  0
 12 23  1  0  0  0  0
 13 14  1  0  0  0  0
 13 34  1  0  0  0  0
 14 15  1  0  0  0  0
 14 22  2  0  0  0  0
 15 16  2  0  0  0  0
 15 35  1  0  0  0  0
 16 17  1  0  0  0  0
 17 18  1  0  0  0  0
 17 21  2  0  0  0  0
 18 19  1  0  0  0  0
 18 36  1  0  0  0  0
 19 20  2  0  0  0  0
 19 37  1  0  0  0  0
 20 21  1  0  0  0  0
 20 38  1  0  0  0  0
 21 22  1  0  0  0  0
 22 39  1  0  0  0  0
 23 24  2  0  0  0  0
 24 25  1  0  0  0  0
 25 26  1  0  0  0  0
 25 27  1  0  0  0  0
 25 40  1  0  0  0  0
 26 41  1  0  0  0  0
 26 42  1  0  0  0  0
 26 43  1  0  0  0  0
 27 44  1  0  0  0  0
 27 45  1  0  0  0  0
 27 46  1  0  0  0  0
M  END
$$$$
