CHEMBL1242664
 OpenBabel04072215363D

 42 46  0  0  0  0  0  0  0  0999 V2000
    1.0910    0.2746    0.1339 N   0  0  0  0  0  0  0  0  0  0  0  0
    2.4680    0.0997    0.0875 C   0  0  0  0  0  0  0  0  0  0  0  0
    3.1967    1.2343    0.0961 N   0  0  0  0  0  0  0  0  0  0  0  0
    4.5381    1.1422    0.0945 C   0  0  0  0  0  0  0  0  0  0  0  0
    5.2847    0.0298    0.1009 N   0  0  0  0  0  0  0  0  0  0  0  0
    4.5208   -1.0767    0.0803 C   0  0  0  0  0  0  0  0  0  0  0  0
    3.1369   -1.1367    0.0536 C   0  0  0  0  0  0  0  0  0  0  0  0
    2.8330   -2.5382   -0.0060 C   0  0  0  0  0  0  0  0  0  0  0  0
    1.5327   -3.2181   -0.1288 C   0  0  0  0  0  0  0  0  0  0  0  0
    0.4726   -2.6272   -0.8259 C   0  0  0  0  0  0  0  0  0  0  0  0
   -0.7811   -3.2466   -0.9301 C   0  0  0  0  0  0  0  0  0  0  0  0
   -0.9558   -4.5339   -0.3974 C   0  0  0  0  0  0  0  0  0  0  0  0
   -2.0375   -5.4552   -0.3779 C   0  0  0  0  0  0  0  0  0  0  0  0
   -1.5952   -6.6046    0.2357 C   0  0  0  0  0  0  0  0  0  0  0  0
   -0.2975   -6.3989    0.6264 N   0  0  0  0  0  0  0  0  0  0  0  0
    0.1183   -5.1412    0.2502 C   0  0  0  0  0  0  0  0  0  0  0  0
    1.3588   -4.5050    0.4174 C   0  0  0  0  0  0  0  0  0  0  0  0
    3.9607   -3.2755    0.0571 N   0  0  0  0  0  0  0  0  0  0  0  0
    4.9609   -2.3712    0.0835 N   0  0  0  0  0  0  0  0  0  0  0  0
    6.3430   -2.8061    0.1041 C   0  0  0  0  0  0  0  0  0  0  0  0
    6.7368   -3.6887   -1.0816 C   0  0  0  0  0  0  0  0  0  0  0  0
    7.9724   -4.4559   -0.6150 C   0  0  0  0  0  0  0  0  0  0  0  0
    8.0266   -4.3164    0.9055 C   0  0  0  0  0  0  0  0  0  0  0  0
    6.7124   -3.6632    1.3142 C   0  0  0  0  0  0  0  0  0  0  0  0
    0.8718    1.2360    0.3705 H   0  0  0  0  0  0  0  0  0  0  0  0
    0.5967   -0.4276    0.6706 H   0  0  0  0  0  0  0  0  0  0  0  0
    5.0774    2.0845    0.0960 H   0  0  0  0  0  0  0  0  0  0  0  0
    0.6018   -1.6742   -1.3325 H   0  0  0  0  0  0  0  0  0  0  0  0
   -1.5929   -2.7493   -1.4527 H   0  0  0  0  0  0  0  0  0  0  0  0
   -3.0219   -5.3026   -0.8005 H   0  0  0  0  0  0  0  0  0  0  0  0
   -2.0876   -7.5501    0.4194 H   0  0  0  0  0  0  0  0  0  0  0  0
    0.2859   -7.0790    1.0937 H   0  0  0  0  0  0  0  0  0  0  0  0
    2.1749   -5.0068    0.9317 H   0  0  0  0  0  0  0  0  0  0  0  0
    6.9797   -1.9116    0.1007 H   0  0  0  0  0  0  0  0  0  0  0  0
    6.9402   -3.0967   -1.9802 H   0  0  0  0  0  0  0  0  0  0  0  0
    5.9439   -4.4014   -1.3378 H   0  0  0  0  0  0  0  0  0  0  0  0
    8.8823   -4.0439   -1.0654 H   0  0  0  0  0  0  0  0  0  0  0  0
    7.9087   -5.5073   -0.9159 H   0  0  0  0  0  0  0  0  0  0  0  0
    8.8701   -3.6746    1.1861 H   0  0  0  0  0  0  0  0  0  0  0  0
    8.1712   -5.2820    1.4004 H   0  0  0  0  0  0  0  0  0  0  0  0
    6.8195   -3.0678    2.2270 H   0  0  0  0  0  0  0  0  0  0  0  0
    5.9589   -4.4357    1.5087 H   0  0  0  0  0  0  0  0  0  0  0  0
  1  2  1  0  0  0  0
  1 25  1  0  0  0  0
  1 26  1  0  0  0  0
  2  3  1  0  0  0  0
  2  7  2  0  0  0  0
  3  4  2  0  0  0  0
  4  5  1  0  0  0  0
  4 27  1  0  0  0  0
  5  6  2  0  0  0  0
  6  7  1  0  0  0  0
  6 19  1  0  0  0  0
  7  8  1  0  0  0  0
  8  9  1  0  0  0  0
  8 18  2  0  0  0  0
  9 10  1  0  0  0  0
  9 17  2  0  0  0  0
 10 11  2  0  0  0  0
 10 28  1  0  0  0  0
 11 12  1  0  0  0  0
 11 29  1  0  0  0  0
 12 13  1  0  0  0  0
 12 16  2  0  0  0  0
 13 14  2  0  0  0  0
 13 30  1  0  0  0  0
 14 15  1  0  0  0  0
 14 31  1  0  0  0  0
 15 16  1  0  0  0  0
 15 32  1  0  0  0  0
 16 17  1  0  0  0  0
 17 33  1  0  0  0  0
 18 19  1  0  0  0  0
 19 20  1  0  0  0  0
 20 21  1  0  0  0  0
 20 24  1  0  0  0  0
 20 34  1  0  0  0  0
 21 22  1  0  0  0  0
 21 35  1  0  0  0  0
 21 36  1  0  0  0  0
 22 23  1  0  0  0  0
 22 37  1  0  0  0  0
 22 38  1  0  0  0  0
 23 24  1  0  0  0  0
 23 39  1  0  0  0  0
 23 40  1  0  0  0  0
 24 41  1  0  0  0  0
 24 42  1  0  0  0  0
M  END
$$$$
