CHEMBL184604
 OpenBabel04072215363D

 52 55  0  0  0  0  0  0  0  0999 V2000
    1.1145    0.8589   -0.8152 C   0  0  0  0  0  0  0  0  0  0  0  0
    2.2516    0.2194   -0.0291 C   0  0  0  0  0  0  0  0  0  0  0  0
    2.7270   -1.0259   -0.7366 C   0  0  0  0  0  0  0  0  0  0  0  0
    3.7105   -0.8349   -1.7308 C   0  0  0  0  0  0  0  0  0  0  0  0
    4.1486   -1.8599   -2.5884 C   0  0  0  0  0  0  0  0  0  0  0  0
    5.2343   -1.5847   -3.5486 C   0  0  0  0  0  0  0  0  0  0  0  0
    5.2998   -0.3422   -4.2243 C   0  0  0  0  0  0  0  0  0  0  0  0
    6.4944    0.1440   -4.7873 C   0  0  0  0  0  0  0  0  0  0  0  0
    7.6742   -0.5694   -4.6288 C   0  0  0  0  0  0  0  0  0  0  0  0
    7.5769   -1.8104   -4.0300 C   0  0  0  0  0  0  0  0  0  0  0  0
    6.3731   -2.3747   -3.6044 C   0  0  0  0  0  0  0  0  0  0  0  0
    6.6673   -3.7396   -3.0880 C   0  0  0  0  0  0  0  0  0  0  0  0
    8.0507   -3.6371   -2.7118 N   0  0  0  0  0  0  0  0  0  0  0  0
    8.6410   -2.5532   -3.3347 C   0  0  0  0  0  0  0  0  0  0  0  0
    9.7721   -2.1389   -3.1519 O   0  0  0  0  0  0  0  0  0  0  0  0
    3.6001   -3.1212   -2.3865 C   0  0  0  0  0  0  0  0  0  0  0  0
    2.6727   -3.3471   -1.3629 C   0  0  0  0  0  0  0  0  0  0  0  0
    2.1972   -2.3134   -0.5443 C   0  0  0  0  0  0  0  0  0  0  0  0
    1.1629   -2.5364    0.4018 N   0  0  0  0  0  0  0  0  0  0  0  0
    0.6130   -3.7639    0.7443 C   0  0  0  0  0  0  0  0  0  0  0  0
    1.0787   -4.8551    0.4274 O   0  0  0  0  0  0  0  0  0  0  0  0
   -0.5729   -3.6089    1.4488 N   0  0  0  0  0  0  0  0  0  0  0  0
   -1.3052   -4.7197    1.9460 C   0  0  0  0  0  0  0  0  0  0  0  0
   -0.6861   -5.8902    2.3699 C   0  0  0  0  0  0  0  0  0  0  0  0
   -1.4419   -6.9826    2.7946 C   0  0  0  0  0  0  0  0  0  0  0  0
   -2.8326   -6.9225    2.7662 C   0  0  0  0  0  0  0  0  0  0  0  0
   -3.4774   -5.7504    2.3559 C   0  0  0  0  0  0  0  0  0  0  0  0
   -4.9718   -5.6906    2.2881 C   0  0  0  0  0  0  0  0  0  0  0  0
   -2.7027   -4.6423    1.9581 C   0  0  0  0  0  0  0  0  0  0  0  0
    0.7447    1.7526   -0.3044 H   0  0  0  0  0  0  0  0  0  0  0  0
    0.2791    0.1615   -0.9407 H   0  0  0  0  0  0  0  0  0  0  0  0
    1.4481    1.1577   -1.8154 H   0  0  0  0  0  0  0  0  0  0  0  0
    1.9494    0.0099    1.0026 H   0  0  0  0  0  0  0  0  0  0  0  0
    3.0778    0.9414    0.0558 H   0  0  0  0  0  0  0  0  0  0  0  0
    4.1495    0.1587   -1.8315 H   0  0  0  0  0  0  0  0  0  0  0  0
    4.4295    0.3142   -4.2343 H   0  0  0  0  0  0  0  0  0  0  0  0
    6.5149    1.1345   -5.2365 H   0  0  0  0  0  0  0  0  0  0  0  0
    8.6386   -0.1514   -4.8933 H   0  0  0  0  0  0  0  0  0  0  0  0
    6.6155   -4.4613   -3.9139 H   0  0  0  0  0  0  0  0  0  0  0  0
    6.0734   -4.0979   -2.2476 H   0  0  0  0  0  0  0  0  0  0  0  0
    8.3113   -3.7410   -1.7398 H   0  0  0  0  0  0  0  0  0  0  0  0
    3.8880   -3.9678   -3.0032 H   0  0  0  0  0  0  0  0  0  0  0  0
    2.3265   -4.3697   -1.2559 H   0  0  0  0  0  0  0  0  0  0  0  0
    0.8604   -1.7541    0.9596 H   0  0  0  0  0  0  0  0  0  0  0  0
   -1.1008   -2.7823    1.2299 H   0  0  0  0  0  0  0  0  0  0  0  0
    0.4030   -5.9699    2.4131 H   0  0  0  0  0  0  0  0  0  0  0  0
   -0.9425   -7.8904    3.1158 H   0  0  0  0  0  0  0  0  0  0  0  0
   -3.4081   -7.7974    3.0630 H   0  0  0  0  0  0  0  0  0  0  0  0
   -5.4302   -6.5971    2.6971 H   0  0  0  0  0  0  0  0  0  0  0  0
   -5.3032   -5.5808    1.2508 H   0  0  0  0  0  0  0  0  0  0  0  0
   -5.3388   -4.8409    2.8744 H   0  0  0  0  0  0  0  0  0  0  0  0
   -3.2131   -3.7460    1.6097 H   0  0  0  0  0  0  0  0  0  0  0  0
  1  2  1  0  0  0  0
  1 30  1  0  0  0  0
  1 31  1  0  0  0  0
  1 32  1  0  0  0  0
  2  3  1  0  0  0  0
  2 33  1  0  0  0  0
  2 34  1  0  0  0  0
  3  4  1  0  0  0  0
  3 18  2  0  0  0  0
  4  5  2  0  0  0  0
  4 35  1  0  0  0  0
  5  6  1  0  0  0  0
  5 16  1  0  0  0  0
  6  7  1  0  0  0  0
  6 11  2  0  0  0  0
  7  8  2  0  0  0  0
  7 36  1  0  0  0  0
  8  9  1  0  0  0  0
  8 37  1  0  0  0  0
  9 10  2  0  0  0  0
  9 38  1  0  0  0  0
 10 11  1  0  0  0  0
 10 14  1  0  0  0  0
 11 12  1  0  0  0  0
 12 13  1  0  0  0  0
 12 39  1  0  0  0  0
 12 40  1  0  0  0  0
 13 14  1  0  0  0  0
 13 41  1  0  0  0  0
 14 15  2  0  0  0  0
 16 17  2  0  0  0  0
 16 42  1  0  0  0  0
 17 18  1  0  0  0  0
 17 43  1  0  0  0  0
 18 19  1  0  0  0  0
 19 20  1  0  0  0  0
 19 44  1  0  0  0  0
 20 21  2  0  0  0  0
 20 22  1  0  0  0  0
 22 23  1  0  0  0  0
 22 45  1  0  0  0  0
 23 24  1  0  0  0  0
 23 29  2  0  0  0  0
 24 25  2  0  0  0  0
 24 46  1  0  0  0  0
 25 26  1  0  0  0  0
 25 47  1  0  0  0  0
 26 27  2  0  0  0  0
 26 48  1  0  0  0  0
 27 28  1  0  0  0  0
 27 29  1  0  0  0  0
 28 49  1  0  0  0  0
 28 50  1  0  0  0  0
 28 51  1  0  0  0  0
 29 52  1  0  0  0  0
M  END
$$$$
