CHEMBL474863
 OpenBabel04072215383D

 58 62  0  0  0  0  0  0  0  0999 V2000
    5.5632  -13.6370    5.7844 N   0  0  0  0  0  0  0  0  0  0  0  0
    5.9799  -12.8951    6.9105 C   0  0  0  0  0  0  0  0  0  0  0  0
    6.2810  -13.6090    8.0854 C   0  0  0  0  0  0  0  0  0  0  0  0
    6.8263  -12.9742    9.2031 C   0  0  0  0  0  0  0  0  0  0  0  0
    7.1113  -11.6184    9.1466 C   0  0  0  0  0  0  0  0  0  0  0  0
    6.8692  -10.9048    7.9712 C   0  0  0  0  0  0  0  0  0  0  0  0
    6.3326  -11.5264    6.8332 C   0  0  0  0  0  0  0  0  0  0  0  0
    6.1200  -10.8083    5.6262 N   0  0  0  0  0  0  0  0  0  0  0  0
    6.6007   -9.5452    5.3173 C   0  0  0  0  0  0  0  0  0  0  0  0
    7.3387   -8.8529    6.0119 O   0  0  0  0  0  0  0  0  0  0  0  0
    6.1865   -9.0143    3.9752 C   0  0  0  0  0  0  0  0  0  0  0  0
    6.6551   -7.7639    3.5731 C   0  0  0  0  0  0  0  0  0  0  0  0
    6.2981   -7.2849    2.3146 C   0  0  0  0  0  0  0  0  0  0  0  0
    5.4889   -8.0664    1.4911 C   0  0  0  0  0  0  0  0  0  0  0  0
    5.1299   -7.5662    0.1395 C   0  0  0  0  0  0  0  0  0  0  0  0
    4.9495   -6.3630   -0.0016 O   0  0  0  0  0  0  0  0  0  0  0  0
    5.1081   -8.5249   -0.8531 N   0  0  0  0  0  0  0  0  0  0  0  0
    4.7645   -8.3357   -2.2111 C   0  0  0  0  0  0  0  0  0  0  0  0
    4.1538   -7.1943   -2.7207 C   0  0  0  0  0  0  0  0  0  0  0  0
    3.8159   -7.1304   -4.0765 C   0  0  0  0  0  0  0  0  0  0  0  0
    4.0857   -8.2069   -4.9330 C   0  0  0  0  0  0  0  0  0  0  0  0
    4.7085   -9.3610   -4.4471 C   0  0  0  0  0  0  0  0  0  0  0  0
    4.8918  -10.4625   -5.3104 N   0  0  0  0  0  0  0  0  0  0  0  0
    5.1450  -11.7403   -4.9362 C   0  0  0  0  0  0  0  0  0  0  0  0
    5.0192  -12.2183   -3.7166 N   0  0  0  0  0  0  0  0  0  0  0  0
    5.4124  -13.5291   -3.6595 C   0  0  0  0  0  0  0  0  0  0  0  0
    5.8171  -14.0941   -4.8516 C   0  0  0  0  0  0  0  0  0  0  0  0
    6.2943  -15.4558   -5.0938 C   0  0  0  0  0  0  0  0  0  0  0  0
    5.8459  -16.5154   -4.2937 C   0  0  0  0  0  0  0  0  0  0  0  0
    6.3488  -17.8005   -4.4815 C   0  0  0  0  0  0  0  0  0  0  0  0
    7.2911  -17.9951   -5.4742 C   0  0  0  0  0  0  0  0  0  0  0  0
    7.7504  -17.0083   -6.2716 N   0  0  0  0  0  0  0  0  0  0  0  0
    7.2451  -15.7669   -6.0622 C   0  0  0  0  0  0  0  0  0  0  0  0
    5.6606  -12.9144   -6.0936 S   0  0  0  0  0  0  0  0  0  0  0  0
    5.0374   -9.3976   -3.0815 C   0  0  0  0  0  0  0  0  0  0  0  0
    5.0350   -9.2863    1.9887 C   0  0  0  0  0  0  0  0  0  0  0  0
    5.3713   -9.7946    3.2080 N   0  0  0  0  0  0  0  0  0  0  0  0
    5.0999  -14.5073    6.0358 H   0  0  0  0  0  0  0  0  0  0  0  0
    5.0266  -13.1147    5.1079 H   0  0  0  0  0  0  0  0  0  0  0  0
    6.0943  -14.6783    8.1418 H   0  0  0  0  0  0  0  0  0  0  0  0
    7.0384  -13.5378   10.1072 H   0  0  0  0  0  0  0  0  0  0  0  0
    7.5393  -11.1086   10.0058 H   0  0  0  0  0  0  0  0  0  0  0  0
    7.1130   -9.8477    7.9797 H   0  0  0  0  0  0  0  0  0  0  0  0
    5.6349  -11.2798    4.8736 H   0  0  0  0  0  0  0  0  0  0  0  0
    7.2946   -7.1734    4.2236 H   0  0  0  0  0  0  0  0  0  0  0  0
    6.6575   -6.3143    1.9782 H   0  0  0  0  0  0  0  0  0  0  0  0
    5.4649   -9.4466   -0.6293 H   0  0  0  0  0  0  0  0  0  0  0  0
    3.9067   -6.3507   -2.0866 H   0  0  0  0  0  0  0  0  0  0  0  0
    3.3204   -6.2430   -4.4648 H   0  0  0  0  0  0  0  0  0  0  0  0
    3.7834   -8.1350   -5.9742 H   0  0  0  0  0  0  0  0  0  0  0  0
    4.9255  -10.2346   -6.2953 H   0  0  0  0  0  0  0  0  0  0  0  0
    5.3971  -14.0320   -2.7001 H   0  0  0  0  0  0  0  0  0  0  0  0
    5.1028  -16.3551   -3.5162 H   0  0  0  0  0  0  0  0  0  0  0  0
    6.0140  -18.6262   -3.8632 H   0  0  0  0  0  0  0  0  0  0  0  0
    7.7166  -18.9775   -5.6585 H   0  0  0  0  0  0  0  0  0  0  0  0
    7.6705  -15.0060   -6.7112 H   0  0  0  0  0  0  0  0  0  0  0  0
    5.5452  -10.2684   -2.6806 H   0  0  0  0  0  0  0  0  0  0  0  0
    4.3529   -9.9095    1.4154 H   0  0  0  0  0  0  0  0  0  0  0  0
  1  2  1  0  0  0  0
  1 38  1  0  0  0  0
  1 39  1  0  0  0  0
  2  3  1  0  0  0  0
  2  7  2  0  0  0  0
  3  4  2  0  0  0  0
  3 40  1  0  0  0  0
  4  5  1  0  0  0  0
  4 41  1  0  0  0  0
  5  6  2  0  0  0  0
  5 42  1  0  0  0  0
  6  7  1  0  0  0  0
  6 43  1  0  0  0  0
  7  8  1  0  0  0  0
  8  9  1  0  0  0  0
  8 44  1  0  0  0  0
  9 10  2  0  0  0  0
  9 11  1  0  0  0  0
 11 12  1  0  0  0  0
 11 37  2  0  0  0  0
 12 13  2  0  0  0  0
 12 45  1  0  0  0  0
 13 14  1  0  0  0  0
 13 46  1  0  0  0  0
 14 15  1  0  0  0  0
 14 36  2  0  0  0  0
 15 16  2  0  0  0  0
 15 17  1  0  0  0  0
 17 18  1  0  0  0  0
 17 47  1  0  0  0  0
 18 19  1  0  0  0  0
 18 35  2  0  0  0  0
 19 20  2  0  0  0  0
 19 48  1  0  0  0  0
 20 21  1  0  0  0  0
 20 49  1  0  0  0  0
 21 22  2  0  0  0  0
 21 50  1  0  0  0  0
 22 23  1  0  0  0  0
 22 35  1  0  0  0  0
 23 24  1  0  0  0  0
 23 51  1  0  0  0  0
 24 25  2  0  0  0  0
 24 34  1  0  0  0  0
 25 26  1  0  0  0  0
 26 27  2  0  0  0  0
 26 52  1  0  0  0  0
 27 28  1  0  0  0  0
 27 34  1  0  0  0  0
 28 29  1  0  0  0  0
 28 33  2  0  0  0  0
 29 30  2  0  0  0  0
 29 53  1  0  0  0  0
 30 31  1  0  0  0  0
 30 54  1  0  0  0  0
 31 32  2  0  0  0  0
 31 55  1  0  0  0  0
 32 33  1  0  0  0  0
 33 56  1  0  0  0  0
 35 57  1  0  0  0  0
 36 37  1  0  0  0  0
 36 58  1  0  0  0  0
M  END
$$$$
