CHEMBL3965868
 OpenBabel04072215373D

 72 76  0  0  0  0  0  0  0  0999 V2000
   -0.8378    5.6074   -3.4712 C   0  0  0  0  0  0  0  0  0  0  0  0
    0.2470    6.6193   -3.1538 C   0  0  0  0  0  0  0  0  0  0  0  0
    1.4893    6.1059   -3.6567 O   0  0  0  0  0  0  0  0  0  0  0  0
    2.1627    5.2808   -2.7977 C   0  0  0  0  0  0  0  0  0  0  0  0
    1.9280    5.2010   -1.6038 O   0  0  0  0  0  0  0  0  0  0  0  0
    3.2459    4.5208   -3.5735 C   0  0  0  0  0  0  0  0  0  0  0  0
    3.4296    3.1199   -3.1163 N   0  0  0  0  0  0  0  0  0  0  0  0
    3.9241    3.0029   -1.7320 C   0  0  0  0  0  0  0  0  0  0  0  0
    5.3497    3.5251   -1.5334 C   0  0  0  0  0  0  0  0  0  0  0  0
    6.3082    2.8952   -2.4490 N   0  0  0  0  0  0  0  0  0  0  0  0
    7.6413    2.5826   -2.1359 C   0  0  0  0  0  0  0  0  0  0  0  0
    8.3439    1.9727   -2.9412 O   0  0  0  0  0  0  0  0  0  0  0  0
    8.1500    3.0048   -0.8325 C   0  0  0  0  0  0  0  0  0  0  0  0
    7.9386    4.1865   -0.1485 C   0  0  0  0  0  0  0  0  0  0  0  0
    8.4206    4.1467    1.1837 C   0  0  0  0  0  0  0  0  0  0  0  0
    8.1768    5.1037    2.1170 N   0  0  0  0  0  0  0  0  0  0  0  0
    8.6678    4.8589    3.3432 C   0  0  0  0  0  0  0  0  0  0  0  0
    9.4350    3.7643    3.6852 C   0  0  0  0  0  0  0  0  0  0  0  0
    9.7634    2.8370    2.6954 C   0  0  0  0  0  0  0  0  0  0  0  0
   10.5410    1.7316    2.9253 O   0  0  0  0  0  0  0  0  0  0  0  0
   11.6514    1.8376    3.7256 C   0  0  0  0  0  0  0  0  0  0  0  0
   12.0140    0.6543    4.3654 C   0  0  0  0  0  0  0  0  0  0  0  0
   13.1238    0.6228    5.2039 C   0  0  0  0  0  0  0  0  0  0  0  0
   13.8858    1.7724    5.4377 C   0  0  0  0  0  0  0  0  0  0  0  0
   14.9808    1.8101    6.3369 N   0  0  0  0  0  0  0  0  0  0  0  0
   15.2635    0.8237    7.2549 C   0  0  0  0  0  0  0  0  0  0  0  0
   14.5902   -0.1935    7.4053 O   0  0  0  0  0  0  0  0  0  0  0  0
   16.3743    1.0995    8.0379 N   0  0  0  0  0  0  0  0  0  0  0  0
   16.6966    0.1471    9.0417 C   0  0  0  0  0  0  0  0  0  0  0  0
   16.8337   -1.2113    8.7239 C   0  0  0  0  0  0  0  0  0  0  0  0
   16.9150   -2.1747    9.7361 C   0  0  0  0  0  0  0  0  0  0  0  0
   16.9685   -3.6341    9.3925 C   0  0  0  0  0  0  0  0  0  0  0  0
   16.8642   -1.7592   11.0734 C   0  0  0  0  0  0  0  0  0  0  0  0
   16.7905   -0.3996   11.3922 C   0  0  0  0  0  0  0  0  0  0  0  0
   16.7309    0.5465   10.3744 C   0  0  0  0  0  0  0  0  0  0  0  0
   16.5954    1.8451   10.6861 F   0  0  0  0  0  0  0  0  0  0  0  0
   13.5339    2.9416    4.7545 C   0  0  0  0  0  0  0  0  0  0  0  0
   14.2377    4.0656    4.9560 F   0  0  0  0  0  0  0  0  0  0  0  0
   12.4378    2.9776    3.8909 C   0  0  0  0  0  0  0  0  0  0  0  0
    9.1739    3.0055    1.4335 C   0  0  0  0  0  0  0  0  0  0  0  0
    9.2120    1.9840    0.0444 S   0  0  0  0  0  0  0  0  0  0  0  0
    5.8658    2.7884   -3.8460 C   0  0  0  0  0  0  0  0  0  0  0  0
    4.3784    2.3912   -3.9925 C   0  0  0  0  0  0  0  0  0  0  0  0
   -1.8224    5.9710   -3.1685 H   0  0  0  0  0  0  0  0  0  0  0  0
   -0.6421    4.6560   -2.9639 H   0  0  0  0  0  0  0  0  0  0  0  0
   -0.8507    5.3911   -4.5452 H   0  0  0  0  0  0  0  0  0  0  0  0
    0.2908    6.8407   -2.0813 H   0  0  0  0  0  0  0  0  0  0  0  0
    0.0470    7.5622   -3.6721 H   0  0  0  0  0  0  0  0  0  0  0  0
    4.1657    5.1124   -3.5475 H   0  0  0  0  0  0  0  0  0  0  0  0
    2.9065    4.4766   -4.6167 H   0  0  0  0  0  0  0  0  0  0  0  0
    3.9080    1.9394   -1.4576 H   0  0  0  0  0  0  0  0  0  0  0  0
    3.2592    3.4765   -1.0081 H   0  0  0  0  0  0  0  0  0  0  0  0
    5.6192    3.3295   -0.4937 H   0  0  0  0  0  0  0  0  0  0  0  0
    5.3964    4.6072   -1.7050 H   0  0  0  0  0  0  0  0  0  0  0  0
    7.3673    5.0169   -0.5369 H   0  0  0  0  0  0  0  0  0  0  0  0
    8.4203    5.6101    4.0895 H   0  0  0  0  0  0  0  0  0  0  0  0
    9.7785    3.6486    4.7075 H   0  0  0  0  0  0  0  0  0  0  0  0
   11.4338   -0.2522    4.2151 H   0  0  0  0  0  0  0  0  0  0  0  0
   13.3610   -0.3361    5.6537 H   0  0  0  0  0  0  0  0  0  0  0  0
   15.5209    2.6649    6.3619 H   0  0  0  0  0  0  0  0  0  0  0  0
   16.4263    2.0641    8.3422 H   0  0  0  0  0  0  0  0  0  0  0  0
   16.8143   -1.5240    7.6815 H   0  0  0  0  0  0  0  0  0  0  0  0
   17.1411   -3.7880    8.3207 H   0  0  0  0  0  0  0  0  0  0  0  0
   16.0248   -4.1193    9.6562 H   0  0  0  0  0  0  0  0  0  0  0  0
   17.7896   -4.1209    9.9317 H   0  0  0  0  0  0  0  0  0  0  0  0
   16.8642   -2.4969   11.8730 H   0  0  0  0  0  0  0  0  0  0  0  0
   16.7335   -0.0783   12.4268 H   0  0  0  0  0  0  0  0  0  0  0  0
   12.2141    3.9055    3.3750 H   0  0  0  0  0  0  0  0  0  0  0  0
    6.4844    2.0690   -4.3918 H   0  0  0  0  0  0  0  0  0  0  0  0
    6.0364    3.7704   -4.3038 H   0  0  0  0  0  0  0  0  0  0  0  0
    4.2871    1.3229   -3.7545 H   0  0  0  0  0  0  0  0  0  0  0  0
    4.0722    2.4827   -5.0416 H   0  0  0  0  0  0  0  0  0  0  0  0
  1  2  1  0  0  0  0
  1 44  1  0  0  0  0
  1 45  1  0  0  0  0
  1 46  1  0  0  0  0
  2  3  1  0  0  0  0
  2 47  1  0  0  0  0
  2 48  1  0  0  0  0
  3  4  1  0  0  0  0
  4  5  2  0  0  0  0
  4  6  1  0  0  0  0
  6  7  1  0  0  0  0
  6 49  1  0  0  0  0
  6 50  1  0  0  0  0
  7  8  1  0  0  0  0
  7 43  1  0  0  0  0
  8  9  1  0  0  0  0
  8 51  1  0  0  0  0
  8 52  1  0  0  0  0
  9 10  1  0  0  0  0
  9 53  1  0  0  0  0
  9 54  1  0  0  0  0
 10 11  1  0  0  0  0
 10 42  1  0  0  0  0
 11 12  2  0  0  0  0
 11 13  1  0  0  0  0
 13 14  2  0  0  0  0
 13 41  1  0  0  0  0
 14 15  1  0  0  0  0
 14 55  1  0  0  0  0
 15 16  1  0  0  0  0
 15 40  2  0  0  0  0
 16 17  2  0  0  0  0
 17 18  1  0  0  0  0
 17 56  1  0  0  0  0
 18 19  2  0  0  0  0
 18 57  1  0  0  0  0
 19 20  1  0  0  0  0
 19 40  1  0  0  0  0
 20 21  1  0  0  0  0
 21 22  1  0  0  0  0
 21 39  2  0  0  0  0
 22 23  2  0  0  0  0
 22 58  1  0  0  0  0
 23 24  1  0  0  0  0
 23 59  1  0  0  0  0
 24 25  1  0  0  0  0
 24 37  2  0  0  0  0
 25 26  1  0  0  0  0
 25 60  1  0  0  0  0
 26 27  2  0  0  0  0
 26 28  1  0  0  0  0
 28 29  1  0  0  0  0
 28 61  1  0  0  0  0
 29 30  1  0  0  0  0
 29 35  2  0  0  0  0
 30 31  2  0  0  0  0
 30 62  1  0  0  0  0
 31 32  1  0  0  0  0
 31 33  1  0  0  0  0
 32 63  1  0  0  0  0
 32 64  1  0  0  0  0
 32 65  1  0  0  0  0
 33 34  2  0  0  0  0
 33 66  1  0  0  0  0
 34 35  1  0  0  0  0
 34 67  1  0  0  0  0
 35 36  1  0  0  0  0
 37 38  1  0  0  0  0
 37 39  1  0  0  0  0
 39 68  1  0  0  0  0
 40 41  1  0  0  0  0
 42 43  1  0  0  0  0
 42 69  1  0  0  0  0
 42 70  1  0  0  0  0
 43 71  1  0  0  0  0
 43 72  1  0  0  0  0
M  END
$$$$
