CHEMBL2001228
 OpenBabel04072215363D

 69 75  0  0  0  0  0  0  0  0999 V2000
    4.7928   -4.2177    3.7688 O   0  0  0  0  0  0  0  0  0  0  0  0
    5.0791   -4.3894    2.5835 C   0  0  0  0  0  0  0  0  0  0  0  0
    4.2049   -4.1505    1.5413 N   0  0  0  0  0  0  0  0  0  0  0  0
    2.8975   -3.6648    1.7624 C   0  0  0  0  0  0  0  0  0  0  0  0
    2.7193   -2.5176    2.5411 C   0  0  0  0  0  0  0  0  0  0  0  0
    1.4556   -1.9611    2.6772 C   0  0  0  0  0  0  0  0  0  0  0  0
    0.3687   -2.5582    2.0422 C   0  0  0  0  0  0  0  0  0  0  0  0
    0.4930   -3.7742    1.3418 C   0  0  0  0  0  0  0  0  0  0  0  0
   -0.7106   -4.4098    0.7914 C   0  0  0  0  0  0  0  0  0  0  0  0
   -0.6601   -5.0785   -0.4209 N   0  0  0  0  0  0  0  0  0  0  0  0
   -1.8911   -5.4326   -0.6299 C   0  0  0  0  0  0  0  0  0  0  0  0
   -2.7072   -6.2540   -1.9217 S   0  0  0  0  0  0  0  0  0  0  0  0
   -4.2356   -5.9759   -1.0789 C   0  0  0  0  0  0  0  0  0  0  0  0
   -4.0790   -5.3328    0.0900 C   0  0  0  0  0  0  0  0  0  0  0  0
   -2.7564   -5.0244    0.3368 N   0  0  0  0  0  0  0  0  0  0  0  0
   -2.0203   -4.3833    1.3155 C   0  0  0  0  0  0  0  0  0  0  0  0
   -2.6184   -3.8110    2.5212 C   0  0  0  0  0  0  0  0  0  0  0  0
   -1.9487   -3.7453    3.7233 C   0  0  0  0  0  0  0  0  0  0  0  0
   -2.5653   -3.0200    4.7076 C   0  0  0  0  0  0  0  0  0  0  0  0
   -3.7693   -2.4565    4.5540 N   0  0  0  0  0  0  0  0  0  0  0  0
   -4.3933   -2.6311    3.3796 C   0  0  0  0  0  0  0  0  0  0  0  0
   -5.6962   -2.1728    3.2212 N   0  0  0  0  0  0  0  0  0  0  0  0
   -6.3359   -1.1141    3.8805 C   0  0  0  0  0  0  0  0  0  0  0  0
   -5.6379   -0.0103    4.3738 C   0  0  0  0  0  0  0  0  0  0  0  0
   -6.3111    1.0123    5.0334 C   0  0  0  0  0  0  0  0  0  0  0  0
   -7.6921    0.9323    5.2097 C   0  0  0  0  0  0  0  0  0  0  0  0
   -8.4368   -0.1581    4.7369 C   0  0  0  0  0  0  0  0  0  0  0  0
   -9.8010   -0.2233    4.9244 N   0  0  0  0  0  0  0  0  0  0  0  0
  -10.5424   -1.4848    5.0560 C   0  0  0  0  0  0  0  0  0  0  0  0
  -11.6102   -1.5801    3.9587 C   0  0  0  0  0  0  0  0  0  0  0  0
  -12.4827   -0.4371    3.9748 O   0  0  0  0  0  0  0  0  0  0  0  0
  -11.7282    0.7680    3.7617 C   0  0  0  0  0  0  0  0  0  0  0  0
  -10.6512    0.9739    4.8408 C   0  0  0  0  0  0  0  0  0  0  0  0
   -7.7247   -1.1722    4.0763 C   0  0  0  0  0  0  0  0  0  0  0  0
   -3.8492   -3.2883    2.3455 N   0  0  0  0  0  0  0  0  0  0  0  0
    1.7888   -4.3091    1.1760 C   0  0  0  0  0  0  0  0  0  0  0  0
    2.0848   -5.8334    0.3829 Cl  0  0  0  0  0  0  0  0  0  0  0  0
    6.4113   -4.9598    2.2506 C   0  0  0  0  0  0  0  0  0  0  0  0
    7.2017   -5.4360    3.2977 C   0  0  0  0  0  0  0  0  0  0  0  0
    8.4746   -5.9475    3.0614 C   0  0  0  0  0  0  0  0  0  0  0  0
    8.9818   -5.9785    1.7602 C   0  0  0  0  0  0  0  0  0  0  0  0
    8.1991   -5.5101    0.7029 C   0  0  0  0  0  0  0  0  0  0  0  0
    6.9296   -5.0046    0.9498 C   0  0  0  0  0  0  0  0  0  0  0  0
    6.2058   -4.5701   -0.0975 F   0  0  0  0  0  0  0  0  0  0  0  0
    4.3575   -4.6678    0.6787 H   0  0  0  0  0  0  0  0  0  0  0  0
    3.5694   -2.0249    3.0064 H   0  0  0  0  0  0  0  0  0  0  0  0
    1.3169   -1.0553    3.2623 H   0  0  0  0  0  0  0  0  0  0  0  0
   -0.5911   -2.0533    2.1203 H   0  0  0  0  0  0  0  0  0  0  0  0
   -5.1794   -6.2965   -1.5000 H   0  0  0  0  0  0  0  0  0  0  0  0
   -4.8584   -5.0431    0.7774 H   0  0  0  0  0  0  0  0  0  0  0  0
   -0.9713   -4.1775    3.8831 H   0  0  0  0  0  0  0  0  0  0  0  0
   -2.0946   -2.8552    5.6727 H   0  0  0  0  0  0  0  0  0  0  0  0
   -6.0733   -2.4208    2.3200 H   0  0  0  0  0  0  0  0  0  0  0  0
   -4.5630    0.0700    4.2377 H   0  0  0  0  0  0  0  0  0  0  0  0
   -5.7592    1.8646    5.4181 H   0  0  0  0  0  0  0  0  0  0  0  0
   -8.1794    1.7282    5.7667 H   0  0  0  0  0  0  0  0  0  0  0  0
  -11.0344   -1.4773    6.0364 H   0  0  0  0  0  0  0  0  0  0  0  0
   -9.9011   -2.3714    5.0383 H   0  0  0  0  0  0  0  0  0  0  0  0
  -12.2273   -2.4693    4.1193 H   0  0  0  0  0  0  0  0  0  0  0  0
  -11.1511   -1.6644    2.9663 H   0  0  0  0  0  0  0  0  0  0  0  0
  -12.4311    1.6067    3.7772 H   0  0  0  0  0  0  0  0  0  0  0  0
  -11.2775    0.7297    2.7622 H   0  0  0  0  0  0  0  0  0  0  0  0
  -11.1275    1.1252    5.8162 H   0  0  0  0  0  0  0  0  0  0  0  0
  -10.0896    1.8816    4.5950 H   0  0  0  0  0  0  0  0  0  0  0  0
   -8.2507   -2.0427    3.6966 H   0  0  0  0  0  0  0  0  0  0  0  0
    6.8207   -5.4166    4.3224 H   0  0  0  0  0  0  0  0  0  0  0  0
    9.0765   -6.3151    3.8893 H   0  0  0  0  0  0  0  0  0  0  0  0
    9.9754   -6.3727    1.5760 H   0  0  0  0  0  0  0  0  0  0  0  0
    8.5854   -5.5288   -0.3135 H   0  0  0  0  0  0  0  0  0  0  0  0
  1  2  2  0  0  0  0
  2  3  1  0  0  0  0
  2 38  1  0  0  0  0
  3  4  1  0  0  0  0
  3 45  1  0  0  0  0
  4  5  1  0  0  0  0
  4 36  2  0  0  0  0
  5  6  2  0  0  0  0
  5 46  1  0  0  0  0
  6  7  1  0  0  0  0
  6 47  1  0  0  0  0
  7  8  2  0  0  0  0
  7 48  1  0  0  0  0
  8  9  1  0  0  0  0
  8 36  1  0  0  0  0
  9 10  1  0  0  0  0
  9 16  2  0  0  0  0
 10 11  2  0  0  0  0
 11 12  1  0  0  0  0
 11 15  1  0  0  0  0
 12 13  1  0  0  0  0
 13 14  2  0  0  0  0
 13 49  1  0  0  0  0
 14 15  1  0  0  0  0
 14 50  1  0  0  0  0
 15 16  1  0  0  0  0
 16 17  1  0  0  0  0
 17 18  1  0  0  0  0
 17 35  2  0  0  0  0
 18 19  2  0  0  0  0
 18 51  1  0  0  0  0
 19 20  1  0  0  0  0
 19 52  1  0  0  0  0
 20 21  2  0  0  0  0
 21 22  1  0  0  0  0
 21 35  1  0  0  0  0
 22 23  1  0  0  0  0
 22 53  1  0  0  0  0
 23 24  1  0  0  0  0
 23 34  2  0  0  0  0
 24 25  2  0  0  0  0
 24 54  1  0  0  0  0
 25 26  1  0  0  0  0
 25 55  1  0  0  0  0
 26 27  2  0  0  0  0
 26 56  1  0  0  0  0
 27 28  1  0  0  0  0
 27 34  1  0  0  0  0
 28 29  1  0  0  0  0
 28 33  1  0  0  0  0
 29 30  1  0  0  0  0
 29 57  1  0  0  0  0
 29 58  1  0  0  0  0
 30 31  1  0  0  0  0
 30 59  1  0  0  0  0
 30 60  1  0  0  0  0
 31 32  1  0  0  0  0
 32 33  1  0  0  0  0
 32 61  1  0  0  0  0
 32 62  1  0  0  0  0
 33 63  1  0  0  0  0
 33 64  1  0  0  0  0
 34 65  1  0  0  0  0
 36 37  1  0  0  0  0
 38 39  1  0  0  0  0
 38 43  2  0  0  0  0
 39 40  2  0  0  0  0
 39 66  1  0  0  0  0
 40 41  1  0  0  0  0
 40 67  1  0  0  0  0
 41 42  2  0  0  0  0
 41 68  1  0  0  0  0
 42 43  1  0  0  0  0
 42 69  1  0  0  0  0
 43 44  1  0  0  0  0
M  END
$$$$
