CHEMBL491429
 OpenBabel04072215383D

 41 44  0  0  0  0  0  0  0  0999 V2000
    0.8949   -0.2302    0.1580 O   0  0  0  0  0  0  0  0  0  0  0  0
    2.1146   -0.1220    0.1589 C   0  0  0  0  0  0  0  0  0  0  0  0
    2.8187    0.9721    0.6376 N   0  0  0  0  0  0  0  0  0  0  0  0
    2.2054    2.1315    1.1801 C   0  0  0  0  0  0  0  0  0  0  0  0
    0.8716    2.2405    1.5368 C   0  0  0  0  0  0  0  0  0  0  0  0
    0.2933    3.3748    1.9961 N   0  0  0  0  0  0  0  0  0  0  0  0
    1.0998    4.4370    2.1014 C   0  0  0  0  0  0  0  0  0  0  0  0
    2.4136    4.4553    1.8292 N   0  0  0  0  0  0  0  0  0  0  0  0
    2.9359    3.2896    1.3816 C   0  0  0  0  0  0  0  0  0  0  0  0
    2.8863   -1.2507   -0.3842 C   0  0  0  0  0  0  0  0  0  0  0  0
    2.4795   -1.9663   -1.5218 C   0  0  0  0  0  0  0  0  0  0  0  0
    1.2371   -1.4057   -2.5848 Cl  0  0  0  0  0  0  0  0  0  0  0  0
    3.1261   -3.1587   -1.8944 C   0  0  0  0  0  0  0  0  0  0  0  0
    4.2099   -3.6622   -1.1610 C   0  0  0  0  0  0  0  0  0  0  0  0
    4.6695   -2.9191   -0.0590 C   0  0  0  0  0  0  0  0  0  0  0  0
    5.7344   -2.9996    0.8835 C   0  0  0  0  0  0  0  0  0  0  0  0
    6.6660   -3.9909    0.8790 N   0  0  0  0  0  0  0  0  0  0  0  0
    7.9542   -3.9365    1.4543 C   0  0  0  0  0  0  0  0  0  0  0  0
    8.5272   -5.0840    2.0114 C   0  0  0  0  0  0  0  0  0  0  0  0
    9.7436   -5.0101    2.6988 C   0  0  0  0  0  0  0  0  0  0  0  0
   10.4020   -3.7870    2.8380 C   0  0  0  0  0  0  0  0  0  0  0  0
    9.8542   -2.6266    2.2826 C   0  0  0  0  0  0  0  0  0  0  0  0
   10.5175   -1.2808    2.4173 C   0  0  0  0  0  0  0  0  0  0  0  0
   11.6329   -1.2971    3.1983 F   0  0  0  0  0  0  0  0  0  0  0  0
   10.9111   -0.7743    1.2149 F   0  0  0  0  0  0  0  0  0  0  0  0
    9.6940   -0.3425    2.9626 F   0  0  0  0  0  0  0  0  0  0  0  0
    8.6379   -2.7203    1.5918 C   0  0  0  0  0  0  0  0  0  0  0  0
    5.6787   -1.9675    1.7374 N   0  0  0  0  0  0  0  0  0  0  0  0
    4.5858   -1.2168    1.3839 O   0  0  0  0  0  0  0  0  0  0  0  0
    3.9955   -1.7573    0.2891 C   0  0  0  0  0  0  0  0  0  0  0  0
    3.8266    0.9948    0.5270 H   0  0  0  0  0  0  0  0  0  0  0  0
    0.1852    1.4022    1.4907 H   0  0  0  0  0  0  0  0  0  0  0  0
    0.6447    5.3645    2.4316 H   0  0  0  0  0  0  0  0  0  0  0  0
    3.9977    3.3411    1.1597 H   0  0  0  0  0  0  0  0  0  0  0  0
    2.7825   -3.7094   -2.7707 H   0  0  0  0  0  0  0  0  0  0  0  0
    4.6901   -4.5890   -1.4618 H   0  0  0  0  0  0  0  0  0  0  0  0
    6.4746   -4.8669    0.4079 H   0  0  0  0  0  0  0  0  0  0  0  0
    8.0146   -6.0410    1.9552 H   0  0  0  0  0  0  0  0  0  0  0  0
   10.1664   -5.9048    3.1504 H   0  0  0  0  0  0  0  0  0  0  0  0
   11.3367   -3.7409    3.3947 H   0  0  0  0  0  0  0  0  0  0  0  0
    8.2204   -1.8139    1.1546 H   0  0  0  0  0  0  0  0  0  0  0  0
  1  2  2  0  0  0  0
  2  3  1  0  0  0  0
  2 10  1  0  0  0  0
  3  4  1  0  0  0  0
  3 31  1  0  0  0  0
  4  5  1  0  0  0  0
  4  9  2  0  0  0  0
  5  6  2  0  0  0  0
  5 32  1  0  0  0  0
  6  7  1  0  0  0  0
  7  8  2  0  0  0  0
  7 33  1  0  0  0  0
  8  9  1  0  0  0  0
  9 34  1  0  0  0  0
 10 11  1  0  0  0  0
 10 30  2  0  0  0  0
 11 12  1  0  0  0  0
 11 13  2  0  0  0  0
 13 14  1  0  0  0  0
 13 35  1  0  0  0  0
 14 15  2  0  0  0  0
 14 36  1  0  0  0  0
 15 16  1  0  0  0  0
 15 30  1  0  0  0  0
 16 17  1  0  0  0  0
 16 28  2  0  0  0  0
 17 18  1  0  0  0  0
 17 37  1  0  0  0  0
 18 19  1  0  0  0  0
 18 27  2  0  0  0  0
 19 20  2  0  0  0  0
 19 38  1  0  0  0  0
 20 21  1  0  0  0  0
 20 39  1  0  0  0  0
 21 22  2  0  0  0  0
 21 40  1  0  0  0  0
 22 23  1  0  0  0  0
 22 27  1  0  0  0  0
 23 24  1  0  0  0  0
 23 25  1  0  0  0  0
 23 26  1  0  0  0  0
 27 41  1  0  0  0  0
 28 29  1  0  0  0  0
 29 30  1  0  0  0  0
M  END
$$$$
