CHEMBL1271721
 OpenBabel04072215363D

 32 34  0  0  0  0  0  0  0  0999 V2000
    0.9726    0.1875    0.6704 O   0  0  0  0  0  0  0  0  0  0  0  0
    2.1259    0.1254    0.2531 C   0  0  0  0  0  0  0  0  0  0  0  0
    2.7326    1.0543   -0.5683 N   0  0  0  0  0  0  0  0  0  0  0  0
    2.1071    2.2058   -1.0929 C   0  0  0  0  0  0  0  0  0  0  0  0
    0.8832    2.7013   -0.6574 C   0  0  0  0  0  0  0  0  0  0  0  0
    0.2384    3.7569   -1.2118 N   0  0  0  0  0  0  0  0  0  0  0  0
    0.8125    4.3554   -2.2607 C   0  0  0  0  0  0  0  0  0  0  0  0
    0.1311    5.3845   -2.8916 C   0  0  0  0  0  0  0  0  0  0  0  0
    0.6643    6.0321   -4.0084 C   0  0  0  0  0  0  0  0  0  0  0  0
    1.9064    5.6505   -4.5022 C   0  0  0  0  0  0  0  0  0  0  0  0
    2.6140    4.6233   -3.8798 C   0  0  0  0  0  0  0  0  0  0  0  0
    2.0718    3.9620   -2.7663 C   0  0  0  0  0  0  0  0  0  0  0  0
    2.7267    2.8854   -2.1401 C   0  0  0  0  0  0  0  0  0  0  0  0
    2.9355   -1.0613    0.6472 C   0  0  0  0  0  0  0  0  0  0  0  0
    2.5261   -1.7412    1.8086 C   0  0  0  0  0  0  0  0  0  0  0  0
    3.1707   -2.9061    2.2233 C   0  0  0  0  0  0  0  0  0  0  0  0
    4.2267   -3.4145    1.4723 C   0  0  0  0  0  0  0  0  0  0  0  0
    4.6451   -2.7433    0.3229 C   0  0  0  0  0  0  0  0  0  0  0  0
    5.9441   -3.4035   -0.6038 Cl  0  0  0  0  0  0  0  0  0  0  0  0
    4.0148   -1.5607   -0.0897 C   0  0  0  0  0  0  0  0  0  0  0  0
    4.4485   -0.9092   -1.2198 O   0  0  0  0  0  0  0  0  0  0  0  0
    3.6440    0.8009   -0.9411 H   0  0  0  0  0  0  0  0  0  0  0  0
    0.3463    2.2702    0.1804 H   0  0  0  0  0  0  0  0  0  0  0  0
   -0.8402    5.6797   -2.5126 H   0  0  0  0  0  0  0  0  0  0  0  0
    0.0974    6.8200   -4.4944 H   0  0  0  0  0  0  0  0  0  0  0  0
    2.3200    6.1486   -5.3764 H   0  0  0  0  0  0  0  0  0  0  0  0
    3.5832    4.3320   -4.2780 H   0  0  0  0  0  0  0  0  0  0  0  0
    3.6933    2.5570   -2.5108 H   0  0  0  0  0  0  0  0  0  0  0  0
    1.6866   -1.3630    2.3926 H   0  0  0  0  0  0  0  0  0  0  0  0
    2.8350   -3.4185    3.1224 H   0  0  0  0  0  0  0  0  0  0  0  0
    4.7126   -4.3347    1.7860 H   0  0  0  0  0  0  0  0  0  0  0  0
    5.1370   -1.4736   -1.6274 H   0  0  0  0  0  0  0  0  0  0  0  0
  1  2  2  0  0  0  0
  2  3  1  0  0  0  0
  2 14  1  0  0  0  0
  3  4  1  0  0  0  0
  3 22  1  0  0  0  0
  4  5  1  0  0  0  0
  4 13  2  0  0  0  0
  5  6  2  0  0  0  0
  5 23  1  0  0  0  0
  6  7  1  0  0  0  0
  7  8  1  0  0  0  0
  7 12  2  0  0  0  0
  8  9  2  0  0  0  0
  8 24  1  0  0  0  0
  9 10  1  0  0  0  0
  9 25  1  0  0  0  0
 10 11  2  0  0  0  0
 10 26  1  0  0  0  0
 11 12  1  0  0  0  0
 11 27  1  0  0  0  0
 12 13  1  0  0  0  0
 13 28  1  0  0  0  0
 14 15  1  0  0  0  0
 14 20  2  0  0  0  0
 15 16  2  0  0  0  0
 15 29  1  0  0  0  0
 16 17  1  0  0  0  0
 16 30  1  0  0  0  0
 17 18  2  0  0  0  0
 17 31  1  0  0  0  0
 18 19  1  0  0  0  0
 18 20  1  0  0  0  0
 20 21  1  0  0  0  0
 21 32  1  0  0  0  0
M  END
$$$$
