CHEMBL3966952
 OpenBabel04072215373D

 64 68  0  0  1  0  0  0  0  0999 V2000
    1.9024    1.4587   -2.0929 C   0  0  0  0  0  0  0  0  0  0  0  0
    3.1881    1.5326   -1.4721 O   0  0  0  0  0  0  0  0  0  0  0  0
    4.0703    0.6188   -1.9636 C   0  0  0  0  0  0  0  0  0  0  0  0
    3.7994   -0.2049   -2.8298 O   0  0  0  0  0  0  0  0  0  0  0  0
    5.4395    0.8037   -1.3480 C   0  0  3  0  0  0  0  0  0  0  0  0
    6.4389   -0.1665   -1.9823 C   0  0  0  0  0  0  0  0  0  0  0  0
    6.2538   -1.4189   -1.1368 C   0  0  0  0  0  0  0  0  0  0  0  0
    6.1254   -0.8762    0.2047 N   0  0  0  0  0  0  0  0  0  0  0  0
    6.3751   -1.4660    1.4445 C   0  0  0  0  0  0  0  0  0  0  0  0
    6.0204   -0.8774    2.4693 O   0  0  0  0  0  0  0  0  0  0  0  0
    7.0045   -2.7815    1.5369 C   0  0  0  0  0  0  0  0  0  0  0  0
    6.7780   -3.7367    2.5162 C   0  0  0  0  0  0  0  0  0  0  0  0
    7.4624   -4.9639    2.2675 C   0  0  0  0  0  0  0  0  0  0  0  0
    7.3433   -6.1058    2.9960 N   0  0  0  0  0  0  0  0  0  0  0  0
    7.9768   -7.1855    2.4964 C   0  0  0  0  0  0  0  0  0  0  0  0
    8.7163   -7.2120    1.3286 C   0  0  0  0  0  0  0  0  0  0  0  0
    8.9071   -6.0184    0.6407 C   0  0  0  0  0  0  0  0  0  0  0  0
    9.5808   -5.9211   -0.5500 O   0  0  0  0  0  0  0  0  0  0  0  0
   10.7673   -6.5793   -0.7211 C   0  0  0  0  0  0  0  0  0  0  0  0
   11.0757   -6.8942   -2.0434 C   0  0  0  0  0  0  0  0  0  0  0  0
   12.2606   -7.5573   -2.3428 C   0  0  0  0  0  0  0  0  0  0  0  0
   13.1515   -7.9348   -1.3307 C   0  0  0  0  0  0  0  0  0  0  0  0
   14.3289   -8.6805   -1.5716 N   0  0  0  0  0  0  0  0  0  0  0  0
   14.5970   -9.3381   -2.7510 C   0  0  0  0  0  0  0  0  0  0  0  0
   13.8363   -9.3643   -3.7135 O   0  0  0  0  0  0  0  0  0  0  0  0
   15.8099  -10.0133   -2.7431 N   0  0  0  0  0  0  0  0  0  0  0  0
   16.1365  -10.7246   -3.9296 C   0  0  0  0  0  0  0  0  0  0  0  0
   16.0974  -10.0830   -5.1748 C   0  0  0  0  0  0  0  0  0  0  0  0
   16.1537  -10.8236   -6.3597 C   0  0  0  0  0  0  0  0  0  0  0  0
   15.9942  -10.1406   -7.6863 C   0  0  0  0  0  0  0  0  0  0  0  0
   16.2668  -12.2181   -6.2827 C   0  0  0  0  0  0  0  0  0  0  0  0
   16.3745  -12.8541   -5.0415 C   0  0  0  0  0  0  0  0  0  0  0  0
   16.3313  -12.1016   -3.8723 C   0  0  0  0  0  0  0  0  0  0  0  0
   16.3620  -12.7237   -2.6836 F   0  0  0  0  0  0  0  0  0  0  0  0
   12.8480   -7.5643   -0.0167 C   0  0  0  0  0  0  0  0  0  0  0  0
   13.6845   -7.9038    0.9788 F   0  0  0  0  0  0  0  0  0  0  0  0
   11.6774   -6.8789    0.2949 C   0  0  0  0  0  0  0  0  0  0  0  0
    8.2579   -4.8799    1.1311 C   0  0  0  0  0  0  0  0  0  0  0  0
    8.3040   -3.2730    0.5454 S   0  0  0  0  0  0  0  0  0  0  0  0
    5.4735    0.4322    0.1379 C   0  0  0  0  0  0  0  0  0  0  0  0
    1.2569    2.2134   -1.6357 H   0  0  0  0  0  0  0  0  0  0  0  0
    1.4543    0.4728   -1.9334 H   0  0  0  0  0  0  0  0  0  0  0  0
    1.9843    1.6748   -3.1633 H   0  0  0  0  0  0  0  0  0  0  0  0
    5.7443    1.8408   -1.5244 H   0  0  0  0  0  0  0  0  0  0  0  0
    7.4568    0.2174   -1.8456 H   0  0  0  0  0  0  0  0  0  0  0  0
    6.2859   -0.3575   -3.0443 H   0  0  0  0  0  0  0  0  0  0  0  0
    7.0776   -2.1027   -1.2943 H   0  0  0  0  0  0  0  0  0  0  0  0
    5.3221   -1.9435   -1.3733 H   0  0  0  0  0  0  0  0  0  0  0  0
    6.0862   -3.5917    3.3373 H   0  0  0  0  0  0  0  0  0  0  0  0
    7.8598   -8.0921    3.0855 H   0  0  0  0  0  0  0  0  0  0  0  0
    9.1399   -8.1459    0.9750 H   0  0  0  0  0  0  0  0  0  0  0  0
   10.3929   -6.6294   -2.8450 H   0  0  0  0  0  0  0  0  0  0  0  0
   12.4533   -7.7569   -3.3908 H   0  0  0  0  0  0  0  0  0  0  0  0
   14.9478   -8.8226   -0.7842 H   0  0  0  0  0  0  0  0  0  0  0  0
   15.9861  -10.5226   -1.8858 H   0  0  0  0  0  0  0  0  0  0  0  0
   15.9483   -9.0051   -5.2185 H   0  0  0  0  0  0  0  0  0  0  0  0
   16.0745   -9.0523   -7.5884 H   0  0  0  0  0  0  0  0  0  0  0  0
   15.0119  -10.3703   -8.1115 H   0  0  0  0  0  0  0  0  0  0  0  0
   16.7750  -10.4677   -8.3794 H   0  0  0  0  0  0  0  0  0  0  0  0
   16.2470  -12.8163   -7.1910 H   0  0  0  0  0  0  0  0  0  0  0  0
   16.4397  -13.9354   -4.9809 H   0  0  0  0  0  0  0  0  0  0  0  0
   11.4898   -6.6026    1.3245 H   0  0  0  0  0  0  0  0  0  0  0  0
    6.0784    1.1428    0.7128 H   0  0  0  0  0  0  0  0  0  0  0  0
    4.4819    0.3650    0.5963 H   0  0  0  0  0  0  0  0  0  0  0  0
  1  2  1  0  0  0  0
  1 41  1  0  0  0  0
  1 42  1  0  0  0  0
  1 43  1  0  0  0  0
  2  3  1  0  0  0  0
  3  4  2  0  0  0  0
  3  5  1  0  0  0  0
  5  6  1  0  0  0  0
  5 40  1  0  0  0  0
  5 44  1  0  0  0  0
  6  7  1  0  0  0  0
  6 45  1  0  0  0  0
  6 46  1  0  0  0  0
  7  8  1  0  0  0  0
  7 47  1  0  0  0  0
  7 48  1  0  0  0  0
  8  9  1  0  0  0  0
  8 40  1  0  0  0  0
  9 10  2  0  0  0  0
  9 11  1  0  0  0  0
 11 12  2  0  0  0  0
 11 39  1  0  0  0  0
 12 13  1  0  0  0  0
 12 49  1  0  0  0  0
 13 14  1  0  0  0  0
 13 38  2  0  0  0  0
 14 15  2  0  0  0  0
 15 16  1  0  0  0  0
 15 50  1  0  0  0  0
 16 17  2  0  0  0  0
 16 51  1  0  0  0  0
 17 18  1  0  0  0  0
 17 38  1  0  0  0  0
 18 19  1  0  0  0  0
 19 20  1  0  0  0  0
 19 37  2  0  0  0  0
 20 21  2  0  0  0  0
 20 52  1  0  0  0  0
 21 22  1  0  0  0  0
 21 53  1  0  0  0  0
 22 23  1  0  0  0  0
 22 35  2  0  0  0  0
 23 24  1  0  0  0  0
 23 54  1  0  0  0  0
 24 25  2  0  0  0  0
 24 26  1  0  0  0  0
 26 27  1  0  0  0  0
 26 55  1  0  0  0  0
 27 28  1  0  0  0  0
 27 33  2  0  0  0  0
 28 29  2  0  0  0  0
 28 56  1  0  0  0  0
 29 30  1  0  0  0  0
 29 31  1  0  0  0  0
 30 57  1  0  0  0  0
 30 58  1  0  0  0  0
 30 59  1  0  0  0  0
 31 32  2  0  0  0  0
 31 60  1  0  0  0  0
 32 33  1  0  0  0  0
 32 61  1  0  0  0  0
 33 34  1  0  0  0  0
 35 36  1  0  0  0  0
 35 37  1  0  0  0  0
 37 62  1  0  0  0  0
 38 39  1  0  0  0  0
 40 63  1  0  0  0  0
 40 64  1  0  0  0  0
M  END
$$$$
