CHEMBL2324873
 OpenBabel04072215363D

 44 47  0  0  1  0  0  0  0  0999 V2000
    2.0845   -0.7728   -0.2747 C   0  0  0  0  0  0  0  0  0  0  0  0
    0.6076   -0.5116   -0.3376 C   0  0  0  0  0  0  0  0  0  0  0  0
   -0.2546   -1.3360   -1.0738 C   0  0  0  0  0  0  0  0  0  0  0  0
   -1.6240   -1.0445   -1.1661 C   0  0  0  0  0  0  0  0  0  0  0  0
   -2.1433    0.0887   -0.5271 C   0  0  0  0  0  0  0  0  0  0  0  0
   -3.6019    0.4241   -0.6380 C   0  0  0  0  0  0  0  0  0  0  0  0
   -4.4648   -0.2116   -1.3936 N   0  0  0  0  0  0  0  0  0  0  0  0
   -5.7104    0.3781   -1.1048 N   0  0  0  0  0  0  0  0  0  0  0  0
   -6.8656   -0.2661   -1.5297 C   0  0  0  0  0  0  0  0  0  0  0  0
   -6.6852   -1.0935   -2.5935 N   0  0  0  0  0  0  0  0  0  0  0  0
   -8.4066   -0.1160   -0.9009 S   0  0  0  0  0  0  0  0  0  0  0  0
   -5.6229    1.2991    0.0295 C   0  0  3  0  0  0  0  0  0  0  0  0
   -6.3403    2.6287   -0.0529 C   0  0  0  0  0  0  0  0  0  0  0  0
   -6.4801    3.3385    1.1533 C   0  0  0  0  0  0  0  0  0  0  0  0
   -6.9342    4.6506    1.1681 C   0  0  0  0  0  0  0  0  0  0  0  0
   -7.4249    5.2164   -0.0017 C   0  0  0  0  0  0  0  0  0  0  0  0
   -7.9362    6.5185    0.0202 C   0  0  0  0  0  0  0  0  0  0  0  0
   -8.8884    6.8892   -0.9186 C   0  0  0  0  0  0  0  0  0  0  0  0
   -9.0609    6.1059   -2.0535 C   0  0  0  0  0  0  0  0  0  0  0  0
   -8.2734    4.9628   -2.2429 C   0  0  0  0  0  0  0  0  0  0  0  0
   -7.5010    4.4556   -1.1813 C   0  0  0  0  0  0  0  0  0  0  0  0
   -6.8346    3.2120   -1.2289 C   0  0  0  0  0  0  0  0  0  0  0  0
   -4.1368    1.5772    0.1357 C   0  0  0  0  0  0  0  0  0  0  0  0
   -1.2828    0.8919    0.2324 C   0  0  0  0  0  0  0  0  0  0  0  0
    0.0790    0.5963    0.3277 C   0  0  0  0  0  0  0  0  0  0  0  0
    2.3617   -1.6618   -0.8492 H   0  0  0  0  0  0  0  0  0  0  0  0
    2.4048   -0.9233    0.7616 H   0  0  0  0  0  0  0  0  0  0  0  0
    2.6298    0.0802   -0.6941 H   0  0  0  0  0  0  0  0  0  0  0  0
    0.1363   -2.2082   -1.5943 H   0  0  0  0  0  0  0  0  0  0  0  0
   -2.2700   -1.6976   -1.7485 H   0  0  0  0  0  0  0  0  0  0  0  0
   -5.7774   -1.0809   -3.0353 H   0  0  0  0  0  0  0  0  0  0  0  0
   -7.4817   -1.5250   -3.0420 H   0  0  0  0  0  0  0  0  0  0  0  0
   -5.9781    0.7430    0.9109 H   0  0  0  0  0  0  0  0  0  0  0  0
   -6.2004    2.8760    2.0961 H   0  0  0  0  0  0  0  0  0  0  0  0
   -7.0196    5.1729    2.1169 H   0  0  0  0  0  0  0  0  0  0  0  0
   -7.6109    7.2277    0.7738 H   0  0  0  0  0  0  0  0  0  0  0  0
   -9.4824    7.7827   -0.7551 H   0  0  0  0  0  0  0  0  0  0  0  0
   -9.7926    6.4020   -2.8006 H   0  0  0  0  0  0  0  0  0  0  0  0
   -8.3466    4.4251   -3.1843 H   0  0  0  0  0  0  0  0  0  0  0  0
   -6.7639    2.6765   -2.1744 H   0  0  0  0  0  0  0  0  0  0  0  0
   -3.8090    1.6189    1.1780 H   0  0  0  0  0  0  0  0  0  0  0  0
   -3.8328    2.4919   -0.3892 H   0  0  0  0  0  0  0  0  0  0  0  0
   -1.6368    1.7770    0.7522 H   0  0  0  0  0  0  0  0  0  0  0  0
    0.7279    1.2473    0.9116 H   0  0  0  0  0  0  0  0  0  0  0  0
  1  2  1  0  0  0  0
  1 26  1  0  0  0  0
  1 27  1  0  0  0  0
  1 28  1  0  0  0  0
  2  3  1  0  0  0  0
  2 25  2  0  0  0  0
  3  4  2  0  0  0  0
  3 29  1  0  0  0  0
  4  5  1  0  0  0  0
  4 30  1  0  0  0  0
  5  6  1  0  0  0  0
  5 24  2  0  0  0  0
  6  7  2  0  0  0  0
  6 23  1  0  0  0  0
  7  8  1  0  0  0  0
  8  9  1  0  0  0  0
  8 12  1  0  0  0  0
  9 10  1  0  0  0  0
  9 11  2  0  0  0  0
 10 31  1  0  0  0  0
 10 32  1  0  0  0  0
 12 13  1  0  0  0  0
 12 23  1  0  0  0  0
 12 33  1  0  0  0  0
 13 14  1  0  0  0  0
 13 22  2  0  0  0  0
 14 15  2  0  0  0  0
 14 34  1  0  0  0  0
 15 16  1  0  0  0  0
 15 35  1  0  0  0  0
 16 17  1  0  0  0  0
 16 21  2  0  0  0  0
 17 18  2  0  0  0  0
 17 36  1  0  0  0  0
 18 19  1  0  0  0  0
 18 37  1  0  0  0  0
 19 20  2  0  0  0  0
 19 38  1  0  0  0  0
 20 21  1  0  0  0  0
 20 39  1  0  0  0  0
 21 22  1  0  0  0  0
 22 40  1  0  0  0  0
 23 41  1  0  0  0  0
 23 42  1  0  0  0  0
 24 25  1  0  0  0  0
 24 43  1  0  0  0  0
 25 44  1  0  0  0  0
M  END
$$$$
