CHEMBL1076533
 OpenBabel04072215353D

 54 58  0  0  0  0  0  0  0  0999 V2000
    2.5633    0.0211   -0.0327 C   0  0  0  0  0  0  0  0  0  0  0  0
    1.0631   -0.0818   -0.0498 C   0  0  0  0  0  0  0  0  0  0  0  0
    0.3283    1.1197   -0.1360 C   0  0  0  0  0  0  0  0  0  0  0  0
   -1.0659    1.1148   -0.1238 C   0  0  0  0  0  0  0  0  0  0  0  0
   -1.7543   -0.0947   -0.0376 C   0  0  0  0  0  0  0  0  0  0  0  0
   -3.2432   -0.0706   -0.0095 C   0  0  0  0  0  0  0  0  0  0  0  0
   -3.8129    0.8300   -0.6124 O   0  0  0  0  0  0  0  0  0  0  0  0
   -3.8371   -1.0571    0.7592 N   0  0  0  0  0  0  0  0  0  0  0  0
   -5.2224   -1.2766    0.9198 C   0  0  0  0  0  0  0  0  0  0  0  0
   -6.1995   -0.6679    0.1274 C   0  0  0  0  0  0  0  0  0  0  0  0
   -7.5568   -0.9147    0.3555 C   0  0  0  0  0  0  0  0  0  0  0  0
   -7.9504   -1.7759    1.3756 C   0  0  0  0  0  0  0  0  0  0  0  0
   -6.9858   -2.4041    2.1585 C   0  0  0  0  0  0  0  0  0  0  0  0
   -5.6276   -2.1633    1.9258 C   0  0  0  0  0  0  0  0  0  0  0  0
   -1.0381   -1.2952    0.0081 C   0  0  0  0  0  0  0  0  0  0  0  0
    0.3711   -1.3148    0.0341 C   0  0  0  0  0  0  0  0  0  0  0  0
    1.0379   -2.5757    0.2412 N   0  0  0  0  0  0  0  0  0  0  0  0
    0.6610   -3.3382    1.3308 C   0  0  0  0  0  0  0  0  0  0  0  0
   -0.1589   -2.8980    2.2732 N   0  0  0  0  0  0  0  0  0  0  0  0
    0.6924   -2.7829    3.3374 C   0  0  0  0  0  0  0  0  0  0  0  0
    0.6176   -1.9433    4.4516 C   0  0  0  0  0  0  0  0  0  0  0  0
    1.7217   -1.8899    5.3106 C   0  0  0  0  0  0  0  0  0  0  0  0
    2.8409   -2.7071    5.1017 C   0  0  0  0  0  0  0  0  0  0  0  0
    2.8986   -3.6037    4.0336 C   0  0  0  0  0  0  0  0  0  0  0  0
    1.8207   -3.5798    3.1476 C   0  0  0  0  0  0  0  0  0  0  0  0
    1.5328   -4.2345    1.9542 N   0  0  0  0  0  0  0  0  0  0  0  0
    1.9759   -5.5386    1.5902 C   0  0  0  0  0  0  0  0  0  0  0  0
    1.6409   -6.1208    0.3798 C   0  0  0  0  0  0  0  0  0  0  0  0
    2.0715   -7.4256    0.1980 C   0  0  0  0  0  0  0  0  0  0  0  0
    1.8629   -8.0991   -1.0048 N   0  0  0  0  0  0  0  0  0  0  0  0
    2.7473   -8.1190    1.1207 N   0  0  0  0  0  0  0  0  0  0  0  0
    3.0019   -7.4818    2.2635 C   0  0  0  0  0  0  0  0  0  0  0  0
    2.6661   -6.2181    2.5371 N   0  0  0  0  0  0  0  0  0  0  0  0
    2.8952    1.0663   -0.0806 H   0  0  0  0  0  0  0  0  0  0  0  0
    2.9849   -0.4920   -0.9014 H   0  0  0  0  0  0  0  0  0  0  0  0
    2.9713   -0.4036    0.8892 H   0  0  0  0  0  0  0  0  0  0  0  0
    0.8391    2.0801   -0.1984 H   0  0  0  0  0  0  0  0  0  0  0  0
   -1.6142    2.0546   -0.1728 H   0  0  0  0  0  0  0  0  0  0  0  0
   -3.2278   -1.6105    1.3526 H   0  0  0  0  0  0  0  0  0  0  0  0
   -5.9341   -0.0000   -0.6857 H   0  0  0  0  0  0  0  0  0  0  0  0
   -8.3023   -0.4282   -0.2671 H   0  0  0  0  0  0  0  0  0  0  0  0
   -9.0066   -1.9560    1.5578 H   0  0  0  0  0  0  0  0  0  0  0  0
   -7.2892   -3.0769    2.9558 H   0  0  0  0  0  0  0  0  0  0  0  0
   -4.8953   -2.6622    2.5549 H   0  0  0  0  0  0  0  0  0  0  0  0
   -1.5695   -2.2426    0.0447 H   0  0  0  0  0  0  0  0  0  0  0  0
    2.0446   -2.4467    0.1574 H   0  0  0  0  0  0  0  0  0  0  0  0
   -0.2394   -1.2932    4.5917 H   0  0  0  0  0  0  0  0  0  0  0  0
    1.7206   -1.1841    6.1362 H   0  0  0  0  0  0  0  0  0  0  0  0
    3.6891   -2.6356    5.7778 H   0  0  0  0  0  0  0  0  0  0  0  0
    3.7672   -4.2329    3.8623 H   0  0  0  0  0  0  0  0  0  0  0  0
    1.0864   -5.6093   -0.3933 H   0  0  0  0  0  0  0  0  0  0  0  0
    0.8899   -8.1204   -1.2770 H   0  0  0  0  0  0  0  0  0  0  0  0
    2.2377   -9.0420   -0.8879 H   0  0  0  0  0  0  0  0  0  0  0  0
    3.5190   -8.0365    3.0380 H   0  0  0  0  0  0  0  0  0  0  0  0
  1  2  1  0  0  0  0
  1 34  1  0  0  0  0
  1 35  1  0  0  0  0
  1 36  1  0  0  0  0
  2  3  1  0  0  0  0
  2 16  2  0  0  0  0
  3  4  2  0  0  0  0
  3 37  1  0  0  0  0
  4  5  1  0  0  0  0
  4 38  1  0  0  0  0
  5  6  1  0  0  0  0
  5 15  2  0  0  0  0
  6  7  2  0  0  0  0
  6  8  1  0  0  0  0
  8  9  1  0  0  0  0
  8 39  1  0  0  0  0
  9 10  1  0  0  0  0
  9 14  2  0  0  0  0
 10 11  2  0  0  0  0
 10 40  1  0  0  0  0
 11 12  1  0  0  0  0
 11 41  1  0  0  0  0
 12 13  2  0  0  0  0
 12 42  1  0  0  0  0
 13 14  1  0  0  0  0
 13 43  1  0  0  0  0
 14 44  1  0  0  0  0
 15 16  1  0  0  0  0
 15 45  1  0  0  0  0
 16 17  1  0  0  0  0
 17 18  1  0  0  0  0
 17 46  1  0  0  0  0
 18 19  2  0  0  0  0
 18 26  1  0  0  0  0
 19 20  1  0  0  0  0
 20 21  1  0  0  0  0
 20 25  2  0  0  0  0
 21 22  2  0  0  0  0
 21 47  1  0  0  0  0
 22 23  1  0  0  0  0
 22 48  1  0  0  0  0
 23 24  2  0  0  0  0
 23 49  1  0  0  0  0
 24 25  1  0  0  0  0
 24 50  1  0  0  0  0
 25 26  1  0  0  0  0
 26 27  1  0  0  0  0
 27 28  1  0  0  0  0
 27 33  2  0  0  0  0
 28 29  2  0  0  0  0
 28 51  1  0  0  0  0
 29 30  1  0  0  0  0
 29 31  1  0  0  0  0
 30 52  1  0  0  0  0
 30 53  1  0  0  0  0
 31 32  2  0  0  0  0
 32 33  1  0  0  0  0
 32 54  1  0  0  0  0
M  END
$$$$
