CHEMBL3740530
 OpenBabel04072215373D

 57 61  0  0  0  0  0  0  0  0999 V2000
    4.2376    2.4979   -2.8188 C   0  0  0  0  0  0  0  0  0  0  0  0
    5.6024    2.0984   -2.8601 O   0  0  0  0  0  0  0  0  0  0  0  0
    5.8583    0.7721   -2.6334 C   0  0  0  0  0  0  0  0  0  0  0  0
    4.9024   -0.1941   -2.3264 C   0  0  0  0  0  0  0  0  0  0  0  0
    5.2950   -1.5165   -2.1387 C   0  0  0  0  0  0  0  0  0  0  0  0
    6.6401   -1.8706   -2.2290 C   0  0  0  0  0  0  0  0  0  0  0  0
    7.6294   -0.9150   -2.4864 C   0  0  0  0  0  0  0  0  0  0  0  0
    8.9992   -1.2179   -2.5668 N   0  0  0  0  0  0  0  0  0  0  0  0
    9.7217   -2.3228   -2.1114 C   0  0  0  0  0  0  0  0  0  0  0  0
   11.0320   -2.1098   -1.9122 N   0  0  0  0  0  0  0  0  0  0  0  0
   11.7404   -3.1154   -1.3670 C   0  0  0  0  0  0  0  0  0  0  0  0
   11.2002   -4.3302   -1.0317 C   0  0  0  0  0  0  0  0  0  0  0  0
    9.8696   -4.4878   -1.3427 C   0  0  0  0  0  0  0  0  0  0  0  0
    9.1525   -5.6468   -1.1039 O   0  0  0  0  0  0  0  0  0  0  0  0
    9.8481   -6.8341   -1.0424 C   0  0  0  0  0  0  0  0  0  0  0  0
    9.6292   -7.6378    0.0742 C   0  0  0  0  0  0  0  0  0  0  0  0
   10.4308   -8.7602    0.2609 C   0  0  0  0  0  0  0  0  0  0  0  0
   11.3472   -9.1479   -0.7426 C   0  0  0  0  0  0  0  0  0  0  0  0
   12.1939  -10.2606   -0.6494 C   0  0  0  0  0  0  0  0  0  0  0  0
   13.7196   -9.9269   -0.8929 C   0  0  0  0  0  0  0  0  0  0  0  0
   14.1336   -8.7812   -0.7557 O   0  0  0  0  0  0  0  0  0  0  0  0
   14.5042  -11.0193   -1.2897 N   0  0  0  0  0  0  0  0  0  0  0  0
   15.8235  -11.0364   -1.8151 C   0  0  0  0  0  0  0  0  0  0  0  0
   16.6057   -9.9056   -2.0541 C   0  0  0  0  0  0  0  0  0  0  0  0
   17.9013  -10.0309   -2.5871 C   0  0  0  0  0  0  0  0  0  0  0  0
   18.4283  -11.2859   -2.8920 C   0  0  0  0  0  0  0  0  0  0  0  0
   17.6522  -12.4225   -2.6754 C   0  0  0  0  0  0  0  0  0  0  0  0
   16.3635  -12.2923   -2.1445 C   0  0  0  0  0  0  0  0  0  0  0  0
   11.7816  -11.2112   -1.5593 C   0  0  0  0  0  0  0  0  0  0  0  0
   11.5358  -10.7699   -2.8597 C   0  0  0  0  0  0  0  0  0  0  0  0
   11.4185   -9.3883   -3.0926 C   0  0  0  0  0  0  0  0  0  0  0  0
   11.1994   -8.5527   -1.9937 C   0  0  0  0  0  0  0  0  0  0  0  0
   10.5915   -7.3066   -2.1163 C   0  0  0  0  0  0  0  0  0  0  0  0
    9.1259   -3.4949   -1.8571 N   0  0  0  0  0  0  0  0  0  0  0  0
    7.2074    0.4052   -2.7152 C   0  0  0  0  0  0  0  0  0  0  0  0
    4.1865    3.5541   -3.1004 H   0  0  0  0  0  0  0  0  0  0  0  0
    3.8331    2.4011   -1.8056 H   0  0  0  0  0  0  0  0  0  0  0  0
    3.6352    1.9354   -3.5400 H   0  0  0  0  0  0  0  0  0  0  0  0
    3.8483    0.0423   -2.2339 H   0  0  0  0  0  0  0  0  0  0  0  0
    4.5532   -2.2805   -1.9175 H   0  0  0  0  0  0  0  0  0  0  0  0
    6.8941   -2.9169   -2.0861 H   0  0  0  0  0  0  0  0  0  0  0  0
    9.6272   -0.4277   -2.6106 H   0  0  0  0  0  0  0  0  0  0  0  0
   12.7918   -2.9036   -1.1941 H   0  0  0  0  0  0  0  0  0  0  0  0
   11.7991   -5.0986   -0.5647 H   0  0  0  0  0  0  0  0  0  0  0  0
    8.8392   -7.3930    0.7836 H   0  0  0  0  0  0  0  0  0  0  0  0
   10.2718   -9.3901    1.1312 H   0  0  0  0  0  0  0  0  0  0  0  0
   14.0602  -11.9228   -1.2626 H   0  0  0  0  0  0  0  0  0  0  0  0
   16.2335   -8.9058   -1.8471 H   0  0  0  0  0  0  0  0  0  0  0  0
   18.5002   -9.1416   -2.7690 H   0  0  0  0  0  0  0  0  0  0  0  0
   19.4306  -11.3771   -3.2973 H   0  0  0  0  0  0  0  0  0  0  0  0
   18.0504  -13.4040   -2.9174 H   0  0  0  0  0  0  0  0  0  0  0  0
   15.7856  -13.2027   -1.9976 H   0  0  0  0  0  0  0  0  0  0  0  0
   11.7528  -12.2612   -1.2843 H   0  0  0  0  0  0  0  0  0  0  0  0
   11.3882  -11.4794   -3.6609 H   0  0  0  0  0  0  0  0  0  0  0  0
   11.2493   -9.0316   -4.1045 H   0  0  0  0  0  0  0  0  0  0  0  0
   10.5982   -6.7633   -3.0592 H   0  0  0  0  0  0  0  0  0  0  0  0
    7.9393    1.1761   -2.9457 H   0  0  0  0  0  0  0  0  0  0  0  0
  1  2  1  0  0  0  0
  1 36  1  0  0  0  0
  1 37  1  0  0  0  0
  1 38  1  0  0  0  0
  2  3  1  0  0  0  0
  3  4  1  0  0  0  0
  3 35  2  0  0  0  0
  4  5  2  0  0  0  0
  4 39  1  0  0  0  0
  5  6  1  0  0  0  0
  5 40  1  0  0  0  0
  6  7  2  0  0  0  0
  6 41  1  0  0  0  0
  7  8  1  0  0  0  0
  7 35  1  0  0  0  0
  8  9  1  0  0  0  0
  8 42  1  0  0  0  0
  9 10  1  0  0  0  0
  9 34  2  0  0  0  0
 10 11  2  0  0  0  0
 11 12  1  0  0  0  0
 11 43  1  0  0  0  0
 12 13  2  0  0  0  0
 12 44  1  0  0  0  0
 13 14  1  0  0  0  0
 13 34  1  0  0  0  0
 14 15  1  0  0  0  0
 15 16  1  0  0  0  0
 15 33  2  0  0  0  0
 16 17  2  0  0  0  0
 16 45  1  0  0  0  0
 17 18  1  0  0  0  0
 17 46  1  0  0  0  0
 18 19  1  0  0  0  0
 18 32  2  0  0  0  0
 19 20  1  0  0  0  0
 19 29  2  0  0  0  0
 20 21  2  0  0  0  0
 20 22  1  0  0  0  0
 22 23  1  0  0  0  0
 22 47  1  0  0  0  0
 23 24  1  0  0  0  0
 23 28  2  0  0  0  0
 24 25  2  0  0  0  0
 24 48  1  0  0  0  0
 25 26  1  0  0  0  0
 25 49  1  0  0  0  0
 26 27  2  0  0  0  0
 26 50  1  0  0  0  0
 27 28  1  0  0  0  0
 27 51  1  0  0  0  0
 28 52  1  0  0  0  0
 29 30  1  0  0  0  0
 29 53  1  0  0  0  0
 30 31  2  0  0  0  0
 30 54  1  0  0  0  0
 31 32  1  0  0  0  0
 31 55  1  0  0  0  0
 32 33  1  0  0  0  0
 33 56  1  0  0  0  0
 35 57  1  0  0  0  0
M  END
$$$$
