CHEMBL1994693
 OpenBabel04072215363D

 45 49  0  0  0  0  0  0  0  0999 V2000
    1.9999    0.0879   -0.3592 N   0  0  0  0  0  0  0  0  0  0  0  0
    3.2422    0.1243    0.2573 C   0  0  0  0  0  0  0  0  0  0  0  0
    4.2768   -0.1138   -0.5756 N   0  0  0  0  0  0  0  0  0  0  0  0
    5.5226   -0.0975   -0.0851 C   0  0  0  0  0  0  0  0  0  0  0  0
    5.8874    0.1556    1.1646 N   0  0  0  0  0  0  0  0  0  0  0  0
    4.8383    0.3907    1.9697 C   0  0  0  0  0  0  0  0  0  0  0  0
    5.1320    0.7414    3.6060 S   0  0  0  0  0  0  0  0  0  0  0  0
    3.4807    0.9222    3.9148 C   0  0  0  0  0  0  0  0  0  0  0  0
    2.6745    0.6616    2.8146 C   0  0  0  0  0  0  0  0  0  0  0  0
    3.4857    0.3888    1.6267 C   0  0  0  0  0  0  0  0  0  0  0  0
    1.2203    0.7264    3.0658 C   0  0  0  0  0  0  0  0  0  0  0  0
    0.2976    0.0346    2.2901 C   0  0  0  0  0  0  0  0  0  0  0  0
   -1.0730    0.1018    2.5723 C   0  0  0  0  0  0  0  0  0  0  0  0
   -1.5673    0.8073    3.6741 C   0  0  0  0  0  0  0  0  0  0  0  0
   -2.9438    0.8578    4.0240 N   0  0  0  0  0  0  0  0  0  0  0  0
   -3.9462    0.1340    3.4109 C   0  0  0  0  0  0  0  0  0  0  0  0
   -3.7648   -0.6971    2.5287 O   0  0  0  0  0  0  0  0  0  0  0  0
   -5.2133    0.4792    3.8745 N   0  0  0  0  0  0  0  0  0  0  0  0
   -6.3396   -0.1344    3.2671 C   0  0  0  0  0  0  0  0  0  0  0  0
   -6.3846   -1.5198    3.0649 C   0  0  0  0  0  0  0  0  0  0  0  0
   -7.3857   -2.0876    2.2784 C   0  0  0  0  0  0  0  0  0  0  0  0
   -8.3553   -1.2721    1.7019 C   0  0  0  0  0  0  0  0  0  0  0  0
   -8.3547    0.1001    1.9586 C   0  0  0  0  0  0  0  0  0  0  0  0
   -7.3632    0.6694    2.7637 C   0  0  0  0  0  0  0  0  0  0  0  0
   -0.6513    1.4782    4.4834 C   0  0  0  0  0  0  0  0  0  0  0  0
    0.7336    1.4357    4.1983 C   0  0  0  0  0  0  0  0  0  0  0  0
    1.7055    2.1291    5.1262 C   0  0  0  0  0  0  0  0  0  0  0  0
    2.9871    1.3039    5.2751 C   0  0  0  0  0  0  0  0  0  0  0  0
    2.1040    0.0374   -1.3673 H   0  0  0  0  0  0  0  0  0  0  0  0
    1.3274    0.7637   -0.0233 H   0  0  0  0  0  0  0  0  0  0  0  0
    6.3226   -0.2986   -0.7919 H   0  0  0  0  0  0  0  0  0  0  0  0
    0.6047   -0.6182    1.4795 H   0  0  0  0  0  0  0  0  0  0  0  0
   -1.7260   -0.4447    1.9000 H   0  0  0  0  0  0  0  0  0  0  0  0
   -3.1855    1.3423    4.8766 H   0  0  0  0  0  0  0  0  0  0  0  0
   -5.3160    1.4558    4.1070 H   0  0  0  0  0  0  0  0  0  0  0  0
   -5.6090   -2.1623    3.4761 H   0  0  0  0  0  0  0  0  0  0  0  0
   -7.3791   -3.1571    2.0854 H   0  0  0  0  0  0  0  0  0  0  0  0
   -9.1008   -1.7049    1.0398 H   0  0  0  0  0  0  0  0  0  0  0  0
   -9.1050    0.7339    1.4928 H   0  0  0  0  0  0  0  0  0  0  0  0
   -7.3535    1.7452    2.9057 H   0  0  0  0  0  0  0  0  0  0  0  0
   -0.9911    2.0273    5.3589 H   0  0  0  0  0  0  0  0  0  0  0  0
    1.2611    2.2766    6.1163 H   0  0  0  0  0  0  0  0  0  0  0  0
    1.9302    3.1169    4.7076 H   0  0  0  0  0  0  0  0  0  0  0  0
    2.7828    0.3876    5.8446 H   0  0  0  0  0  0  0  0  0  0  0  0
    3.7321    1.8825    5.8317 H   0  0  0  0  0  0  0  0  0  0  0  0
  1  2  1  0  0  0  0
  1 29  1  0  0  0  0
  1 30  1  0  0  0  0
  2  3  1  0  0  0  0
  2 10  2  0  0  0  0
  3  4  2  0  0  0  0
  4  5  1  0  0  0  0
  4 31  1  0  0  0  0
  5  6  2  0  0  0  0
  6  7  1  0  0  0  0
  6 10  1  0  0  0  0
  7  8  1  0  0  0  0
  8  9  2  0  0  0  0
  8 28  1  0  0  0  0
  9 10  1  0  0  0  0
  9 11  1  0  0  0  0
 11 12  1  0  0  0  0
 11 26  2  0  0  0  0
 12 13  2  0  0  0  0
 12 32  1  0  0  0  0
 13 14  1  0  0  0  0
 13 33  1  0  0  0  0
 14 15  1  0  0  0  0
 14 25  2  0  0  0  0
 15 16  1  0  0  0  0
 15 34  1  0  0  0  0
 16 17  2  0  0  0  0
 16 18  1  0  0  0  0
 18 19  1  0  0  0  0
 18 35  1  0  0  0  0
 19 20  1  0  0  0  0
 19 24  2  0  0  0  0
 20 21  2  0  0  0  0
 20 36  1  0  0  0  0
 21 22  1  0  0  0  0
 21 37  1  0  0  0  0
 22 23  2  0  0  0  0
 22 38  1  0  0  0  0
 23 24  1  0  0  0  0
 23 39  1  0  0  0  0
 24 40  1  0  0  0  0
 25 26  1  0  0  0  0
 25 41  1  0  0  0  0
 26 27  1  0  0  0  0
 27 28  1  0  0  0  0
 27 42  1  0  0  0  0
 27 43  1  0  0  0  0
 28 44  1  0  0  0  0
 28 45  1  0  0  0  0
M  END
$$$$
