CHEMBL3899609
 OpenBabel04072215373D

 61 66  0  0  1  0  0  0  0  0999 V2000
    0.9799    0.2417    0.0265 O   0  0  0  0  0  0  0  0  0  0  0  0
    2.2132    0.2064   -0.0301 C   0  0  0  0  0  0  0  0  0  0  0  0
    2.9745    0.5429    1.1896 C   0  0  0  0  0  0  0  0  0  0  0  0
    2.4185    0.1851    2.4212 C   0  0  0  0  0  0  0  0  0  0  0  0
    3.1233    0.4368    3.5913 C   0  0  0  0  0  0  0  0  0  0  0  0
    4.3898    1.0260    3.5318 C   0  0  0  0  0  0  0  0  0  0  0  0
    4.9588    1.3932    2.3088 C   0  0  0  0  0  0  0  0  0  0  0  0
    6.2631    1.9262    2.1742 N   0  0  0  0  0  0  0  0  0  0  0  0
    7.1807    2.1440    3.1957 C   0  0  0  0  0  0  0  0  0  0  0  0
    6.9979    1.9335    4.3834 O   0  0  0  0  0  0  0  0  0  0  0  0
    8.5149    2.6177    2.7243 C   0  0  3  0  0  0  0  0  0  0  0  0
    9.7311    1.7660    2.9937 C   0  0  0  0  0  0  0  0  0  0  0  0
    9.5466    3.0527    3.7607 C   0  0  1  0  0  0  0  0  0  0  0  0
   10.4891    4.2090    3.5194 C   0  0  0  0  0  0  0  0  0  0  0  0
   10.0357    5.4656    3.0938 C   0  0  0  0  0  0  0  0  0  0  0  0
   10.9177    6.5441    2.9430 C   0  0  0  0  0  0  0  0  0  0  0  0
   12.2686    6.3920    3.2230 C   0  0  0  0  0  0  0  0  0  0  0  0
   12.7463    5.1511    3.6485 C   0  0  0  0  0  0  0  0  0  0  0  0
   11.8618    4.0755    3.7919 C   0  0  0  0  0  0  0  0  0  0  0  0
    4.2181    1.1897    1.1391 C   0  0  0  0  0  0  0  0  0  0  0  0
    2.8648   -0.2302   -1.3021 C   0  0  0  0  0  0  0  0  0  0  0  0
    4.1939   -0.6889   -1.3733 C   0  0  0  0  0  0  0  0  0  0  0  0
    4.7740   -1.0968   -2.5951 C   0  0  0  0  0  0  0  0  0  0  0  0
    3.9256   -1.2188   -3.7111 C   0  0  0  0  0  0  0  0  0  0  0  0
    3.9577   -1.6906   -5.0694 C   0  0  0  0  0  0  0  0  0  0  0  0
    4.1047   -0.8868   -6.2786 C   0  0  0  0  0  0  0  0  0  0  0  0
    4.0837    0.4591   -6.3162 C   0  0  0  0  0  0  0  0  0  0  0  0
    3.4318    1.2044   -7.4169 C   0  0  0  0  0  0  0  0  0  0  0  0
    3.3714    2.5939   -7.3693 C   0  0  0  0  0  0  0  0  0  0  0  0
    2.5931    3.2742   -8.3069 C   0  0  0  0  0  0  0  0  0  0  0  0
    1.8845    2.5536   -9.2592 C   0  0  0  0  0  0  0  0  0  0  0  0
    1.9886    1.1745   -9.2354 C   0  0  0  0  0  0  0  0  0  0  0  0
    2.7433    0.4909   -8.3428 N   0  0  0  0  0  0  0  0  0  0  0  0
    2.8965   -2.5230   -5.1509 N   0  0  0  0  0  0  0  0  0  0  0  0
    1.9840   -1.8058   -4.4621 N   0  0  0  0  0  0  0  0  0  0  0  0
    2.5619   -1.0300   -3.4982 C   0  0  0  0  0  0  0  0  0  0  0  0
    2.0240   -0.3457   -2.4149 C   0  0  0  0  0  0  0  0  0  0  0  0
    1.4434   -0.2981    2.4704 H   0  0  0  0  0  0  0  0  0  0  0  0
    2.6998    0.1606    4.5540 H   0  0  0  0  0  0  0  0  0  0  0  0
    4.9072    1.1797    4.4730 H   0  0  0  0  0  0  0  0  0  0  0  0
    6.5820    2.1127    1.2328 H   0  0  0  0  0  0  0  0  0  0  0  0
    8.5104    3.1511    1.7793 H   0  0  0  0  0  0  0  0  0  0  0  0
   10.4981    1.7175    2.2298 H   0  0  0  0  0  0  0  0  0  0  0  0
    9.6083    0.8412    3.5502 H   0  0  0  0  0  0  0  0  0  0  0  0
    9.2522    2.9413    4.8025 H   0  0  0  0  0  0  0  0  0  0  0  0
    8.9771    5.6209    2.8946 H   0  0  0  0  0  0  0  0  0  0  0  0
   10.5402    7.5126    2.6259 H   0  0  0  0  0  0  0  0  0  0  0  0
   12.9479    7.2307    3.1253 H   0  0  0  0  0  0  0  0  0  0  0  0
   13.7974    5.0183    3.8878 H   0  0  0  0  0  0  0  0  0  0  0  0
   12.2460    3.1211    4.1488 H   0  0  0  0  0  0  0  0  0  0  0  0
    4.6151    1.5161    0.1825 H   0  0  0  0  0  0  0  0  0  0  0  0
    4.7916   -0.7999   -0.4712 H   0  0  0  0  0  0  0  0  0  0  0  0
    5.7988   -1.4584   -2.6215 H   0  0  0  0  0  0  0  0  0  0  0  0
    3.8186   -1.4298   -7.1817 H   0  0  0  0  0  0  0  0  0  0  0  0
    4.3080    1.0408   -5.4297 H   0  0  0  0  0  0  0  0  0  0  0  0
    3.8899    3.1493   -6.5958 H   0  0  0  0  0  0  0  0  0  0  0  0
    2.5256    4.3581   -8.2797 H   0  0  0  0  0  0  0  0  0  0  0  0
    1.2626    3.0524   -9.9947 H   0  0  0  0  0  0  0  0  0  0  0  0
    1.4405    0.5623   -9.9473 H   0  0  0  0  0  0  0  0  0  0  0  0
    1.0018   -2.0348   -4.5761 H   0  0  0  0  0  0  0  0  0  0  0  0
    0.9684   -0.1023   -2.3656 H   0  0  0  0  0  0  0  0  0  0  0  0
  1  2  2  0  0  0  0
  2  3  1  0  0  0  0
  2 21  1  0  0  0  0
  3  4  1  0  0  0  0
  3 20  2  0  0  0  0
  4  5  2  0  0  0  0
  4 38  1  0  0  0  0
  5  6  1  0  0  0  0
  5 39  1  0  0  0  0
  6  7  2  0  0  0  0
  6 40  1  0  0  0  0
  7  8  1  0  0  0  0
  7 20  1  0  0  0  0
  8  9  1  0  0  0  0
  8 41  1  0  0  0  0
  9 10  2  0  0  0  0
  9 11  1  0  0  0  0
 11 12  1  0  0  0  0
 11 13  1  0  0  0  0
 11 42  1  0  0  0  0
 12 13  1  0  0  0  0
 12 43  1  0  0  0  0
 12 44  1  0  0  0  0
 13 14  1  0  0  0  0
 13 45  1  1  0  0  0
 14 15  1  0  0  0  0
 14 19  2  0  0  0  0
 15 16  2  0  0  0  0
 15 46  1  0  0  0  0
 16 17  1  0  0  0  0
 16 47  1  0  0  0  0
 17 18  2  0  0  0  0
 17 48  1  0  0  0  0
 18 19  1  0  0  0  0
 18 49  1  0  0  0  0
 19 50  1  0  0  0  0
 20 51  1  0  0  0  0
 21 22  1  0  0  0  0
 21 37  2  0  0  0  0
 22 23  2  0  0  0  0
 22 52  1  0  0  0  0
 23 24  1  0  0  0  0
 23 53  1  0  0  0  0
 24 25  1  0  0  0  0
 24 36  2  0  0  0  0
 25 26  1  0  0  0  0
 25 34  2  0  0  0  0
 26 27  2  0  0  0  0
 26 54  1  0  0  0  0
 27 28  1  0  0  0  0
 27 55  1  0  0  0  0
 28 29  1  0  0  0  0
 28 33  2  0  0  0  0
 29 30  2  0  0  0  0
 29 56  1  0  0  0  0
 30 31  1  0  0  0  0
 30 57  1  0  0  0  0
 31 32  2  0  0  0  0
 31 58  1  0  0  0  0
 32 33  1  0  0  0  0
 32 59  1  0  0  0  0
 34 35  1  0  0  0  0
 35 36  1  0  0  0  0
 35 60  1  0  0  0  0
 36 37  1  0  0  0  0
 37 61  1  0  0  0  0
M  END
$$$$
