CHEMBL150581
 OpenBabel04072215363D

 36 38  0  0  0  0  0  0  0  0999 V2000
    3.3649   -1.0099    0.6514 C   0  0  0  0  0  0  0  0  0  0  0  0
    2.4980   -0.0002    0.1218 O   0  0  0  0  0  0  0  0  0  0  0  0
    3.1130    0.9484   -0.6480 C   0  0  0  0  0  0  0  0  0  0  0  0
    4.2147    0.6234   -1.4605 C   0  0  0  0  0  0  0  0  0  0  0  0
    4.9548    1.5812   -2.1336 C   0  0  0  0  0  0  0  0  0  0  0  0
    6.0533    1.1946   -2.7909 N   0  0  0  0  0  0  0  0  0  0  0  0
    6.7987    2.1655   -3.3288 C   0  0  0  0  0  0  0  0  0  0  0  0
    6.5450    3.4731   -3.2605 N   0  0  0  0  0  0  0  0  0  0  0  0
    5.4274    3.8491   -2.6123 C   0  0  0  0  0  0  0  0  0  0  0  0
    5.1957    5.2351   -2.4163 N   0  0  0  0  0  0  0  0  0  0  0  0
    6.2008    6.2227   -2.5203 C   0  0  0  0  0  0  0  0  0  0  0  0
    7.4705    6.0202   -1.9585 C   0  0  0  0  0  0  0  0  0  0  0  0
    8.4927    6.9469   -2.1419 C   0  0  0  0  0  0  0  0  0  0  0  0
    8.2521    8.1087   -2.8799 C   0  0  0  0  0  0  0  0  0  0  0  0
    6.9794    8.3526   -3.3977 C   0  0  0  0  0  0  0  0  0  0  0  0
    5.9651    7.4177   -3.2049 C   0  0  0  0  0  0  0  0  0  0  0  0
    4.7474    7.6584   -3.7170 F   0  0  0  0  0  0  0  0  0  0  0  0
    4.5505    2.9138   -2.0463 C   0  0  0  0  0  0  0  0  0  0  0  0
    3.3640    3.2349   -1.3532 C   0  0  0  0  0  0  0  0  0  0  0  0
    2.6436    2.2683   -0.6482 C   0  0  0  0  0  0  0  0  0  0  0  0
    1.5639    2.8157   -0.0143 O   0  0  0  0  0  0  0  0  0  0  0  0
    0.8207    2.0411    0.9093 C   0  0  0  0  0  0  0  0  0  0  0  0
    3.0214   -1.2602    1.6596 H   0  0  0  0  0  0  0  0  0  0  0  0
    4.4101   -0.6908    0.7437 H   0  0  0  0  0  0  0  0  0  0  0  0
    3.2979   -1.9086    0.0304 H   0  0  0  0  0  0  0  0  0  0  0  0
    4.5483   -0.4110   -1.5475 H   0  0  0  0  0  0  0  0  0  0  0  0
    7.7002    1.8687   -3.8473 H   0  0  0  0  0  0  0  0  0  0  0  0
    4.3149    5.5273   -2.8296 H   0  0  0  0  0  0  0  0  0  0  0  0
    7.6730    5.1175   -1.3873 H   0  0  0  0  0  0  0  0  0  0  0  0
    9.4791    6.7558   -1.7292 H   0  0  0  0  0  0  0  0  0  0  0  0
    9.0575    8.8187   -3.0519 H   0  0  0  0  0  0  0  0  0  0  0  0
    6.7755    9.2546   -3.9636 H   0  0  0  0  0  0  0  0  0  0  0  0
    3.0144    4.2645   -1.3143 H   0  0  0  0  0  0  0  0  0  0  0  0
    0.1534    2.7309    1.4398 H   0  0  0  0  0  0  0  0  0  0  0  0
    1.4592    1.5783    1.6642 H   0  0  0  0  0  0  0  0  0  0  0  0
    0.1937    1.3099    0.3902 H   0  0  0  0  0  0  0  0  0  0  0  0
  1  2  1  0  0  0  0
  1 23  1  0  0  0  0
  1 24  1  0  0  0  0
  1 25  1  0  0  0  0
  2  3  1  0  0  0  0
  3  4  1  0  0  0  0
  3 20  2  0  0  0  0
  4  5  2  0  0  0  0
  4 26  1  0  0  0  0
  5  6  1  0  0  0  0
  5 18  1  0  0  0  0
  6  7  2  0  0  0  0
  7  8  1  0  0  0  0
  7 27  1  0  0  0  0
  8  9  2  0  0  0  0
  9 10  1  0  0  0  0
  9 18  1  0  0  0  0
 10 11  1  0  0  0  0
 10 28  1  0  0  0  0
 11 12  1  0  0  0  0
 11 16  2  0  0  0  0
 12 13  2  0  0  0  0
 12 29  1  0  0  0  0
 13 14  1  0  0  0  0
 13 30  1  0  0  0  0
 14 15  2  0  0  0  0
 14 31  1  0  0  0  0
 15 16  1  0  0  0  0
 15 32  1  0  0  0  0
 16 17  1  0  0  0  0
 18 19  2  0  0  0  0
 19 20  1  0  0  0  0
 19 33  1  0  0  0  0
 20 21  1  0  0  0  0
 21 22  1  0  0  0  0
 22 34  1  0  0  0  0
 22 35  1  0  0  0  0
 22 36  1  0  0  0  0
M  END
$$$$
