CHEMBL272802
 OpenBabel04072215363D

 42 45  0  0  0  0  0  0  0  0999 V2000
    1.2320    2.0521    3.2039 N   0  0  0  0  0  0  0  0  0  0  0  0
    1.4878    0.9495    2.4756 C   0  0  0  0  0  0  0  0  0  0  0  0
    1.8607   -0.1919    3.0591 N   0  0  0  0  0  0  0  0  0  0  0  0
    2.0467   -1.0961    2.0420 O   0  0  0  0  0  0  0  0  0  0  0  0
    1.7696   -0.5080    0.8527 C   0  0  0  0  0  0  0  0  0  0  0  0
    1.8516   -1.1545   -0.3775 C   0  0  0  0  0  0  0  0  0  0  0  0
    1.5075   -0.4046   -1.4966 C   0  0  0  0  0  0  0  0  0  0  0  0
    1.1076    0.9266   -1.3663 C   0  0  0  0  0  0  0  0  0  0  0  0
    1.0401    1.5834   -0.1104 C   0  0  0  0  0  0  0  0  0  0  0  0
    0.5864    2.9831   -0.0235 C   0  0  0  0  0  0  0  0  0  0  0  0
   -0.3123    3.3697    0.9655 C   0  0  0  0  0  0  0  0  0  0  0  0
   -0.6767    4.7019    1.1385 C   0  0  0  0  0  0  0  0  0  0  0  0
   -0.2598    5.7018    0.2571 C   0  0  0  0  0  0  0  0  0  0  0  0
   -0.6576    7.0615    0.3920 N   0  0  0  0  0  0  0  0  0  0  0  0
   -1.4832    7.5329    1.4001 C   0  0  0  0  0  0  0  0  0  0  0  0
   -1.9633    6.8334    2.2865 O   0  0  0  0  0  0  0  0  0  0  0  0
   -1.7369    8.8959    1.3233 N   0  0  0  0  0  0  0  0  0  0  0  0
   -2.4840    9.5800    2.3256 C   0  0  0  0  0  0  0  0  0  0  0  0
   -2.5831    9.1065    3.6456 C   0  0  0  0  0  0  0  0  0  0  0  0
   -3.4013    9.7334    4.5858 C   0  0  0  0  0  0  0  0  0  0  0  0
   -4.1055   10.8752    4.2295 C   0  0  0  0  0  0  0  0  0  0  0  0
   -3.9711   11.3881    2.9414 C   0  0  0  0  0  0  0  0  0  0  0  0
   -4.9167   12.9542    2.4672 Br  0  0  0  0  0  0  0  0  0  0  0  0
   -3.1604   10.7525    1.9886 C   0  0  0  0  0  0  0  0  0  0  0  0
    0.5689    5.3254   -0.7991 C   0  0  0  0  0  0  0  0  0  0  0  0
    0.9952    3.9827   -0.9282 C   0  0  0  0  0  0  0  0  0  0  0  0
    1.3922    0.8164    1.0455 C   0  0  0  0  0  0  0  0  0  0  0  0
    1.4223    2.0173    4.1995 H   0  0  0  0  0  0  0  0  0  0  0  0
    1.2689    2.9838    2.8090 H   0  0  0  0  0  0  0  0  0  0  0  0
    2.1576   -2.1911   -0.4481 H   0  0  0  0  0  0  0  0  0  0  0  0
    1.5390   -0.8651   -2.4816 H   0  0  0  0  0  0  0  0  0  0  0  0
    0.8153    1.4613   -2.2695 H   0  0  0  0  0  0  0  0  0  0  0  0
   -0.7343    2.6408    1.6557 H   0  0  0  0  0  0  0  0  0  0  0  0
   -1.2997    4.8946    2.0021 H   0  0  0  0  0  0  0  0  0  0  0  0
   -0.2888    7.7230   -0.2755 H   0  0  0  0  0  0  0  0  0  0  0  0
   -1.6951    9.3187    0.4083 H   0  0  0  0  0  0  0  0  0  0  0  0
   -2.0351    8.2277    3.9797 H   0  0  0  0  0  0  0  0  0  0  0  0
   -3.4882    9.3159    5.5865 H   0  0  0  0  0  0  0  0  0  0  0  0
   -4.7495   11.3538    4.9611 H   0  0  0  0  0  0  0  0  0  0  0  0
   -3.0959   11.1563    0.9832 H   0  0  0  0  0  0  0  0  0  0  0  0
    0.9030    6.0471   -1.5379 H   0  0  0  0  0  0  0  0  0  0  0  0
    1.6580    3.7303   -1.7549 H   0  0  0  0  0  0  0  0  0  0  0  0
  1  2  1  0  0  0  0
  1 28  1  0  0  0  0
  1 29  1  0  0  0  0
  2  3  2  0  0  0  0
  2 27  1  0  0  0  0
  3  4  1  0  0  0  0
  4  5  1  0  0  0  0
  5  6  1  0  0  0  0
  5 27  2  0  0  0  0
  6  7  2  0  0  0  0
  6 30  1  0  0  0  0
  7  8  1  0  0  0  0
  7 31  1  0  0  0  0
  8  9  2  0  0  0  0
  8 32  1  0  0  0  0
  9 10  1  0  0  0  0
  9 27  1  0  0  0  0
 10 11  1  0  0  0  0
 10 26  2  0  0  0  0
 11 12  2  0  0  0  0
 11 33  1  0  0  0  0
 12 13  1  0  0  0  0
 12 34  1  0  0  0  0
 13 14  1  0  0  0  0
 13 25  2  0  0  0  0
 14 15  1  0  0  0  0
 14 35  1  0  0  0  0
 15 16  2  0  0  0  0
 15 17  1  0  0  0  0
 17 18  1  0  0  0  0
 17 36  1  0  0  0  0
 18 19  1  0  0  0  0
 18 24  2  0  0  0  0
 19 20  2  0  0  0  0
 19 37  1  0  0  0  0
 20 21  1  0  0  0  0
 20 38  1  0  0  0  0
 21 22  2  0  0  0  0
 21 39  1  0  0  0  0
 22 23  1  0  0  0  0
 22 24  1  0  0  0  0
 24 40  1  0  0  0  0
 25 26  1  0  0  0  0
 25 41  1  0  0  0  0
 26 42  1  0  0  0  0
M  END
$$$$
