CHEMBL4250191
 OpenBabel04072215383D

 35 37  0  0  0  0  0  0  0  0999 V2000
    3.2201   -1.4002    0.6063 C   0  0  0  0  0  0  0  0  0  0  0  0
    2.5308   -0.1723    0.4042 O   0  0  0  0  0  0  0  0  0  0  0  0
    3.3004    0.9471    0.2512 C   0  0  0  0  0  0  0  0  0  0  0  0
    4.6924    0.9908    0.2690 C   0  0  0  0  0  0  0  0  0  0  0  0
    5.3633    2.2177    0.1705 C   0  0  0  0  0  0  0  0  0  0  0  0
    4.6620    3.4308    0.0983 C   0  0  0  0  0  0  0  0  0  0  0  0
    5.3020    4.6789    0.1591 N   0  0  0  0  0  0  0  0  0  0  0  0
    6.6773    4.7842   -0.3296 C   0  0  0  0  0  0  0  0  0  0  0  0
    4.9606    5.7598    1.0099 C   0  0  0  0  0  0  0  0  0  0  0  0
    5.2431    7.0208    0.5618 N   0  0  0  0  0  0  0  0  0  0  0  0
    4.8922    8.0932    1.2885 C   0  0  0  0  0  0  0  0  0  0  0  0
    4.2729    8.1059    2.4631 N   0  0  0  0  0  0  0  0  0  0  0  0
    4.0491    6.8654    2.9155 C   0  0  0  0  0  0  0  0  0  0  0  0
    3.4597    6.6445    4.1177 O   0  0  0  0  0  0  0  0  0  0  0  0
    3.4408    5.3115    4.3187 C   0  0  0  0  0  0  0  0  0  0  0  0
    4.0230    4.6417    3.2629 C   0  0  0  0  0  0  0  0  0  0  0  0
    4.2422    3.1781    3.2413 C   0  0  0  0  0  0  0  0  0  0  0  0
    4.3725    5.6580    2.2972 C   0  0  0  0  0  0  0  0  0  0  0  0
    3.2613    3.3624    0.0179 C   0  0  0  0  0  0  0  0  0  0  0  0
    2.5890    2.1362    0.0923 C   0  0  0  0  0  0  0  0  0  0  0  0
    2.4729   -2.1952    0.6888 H   0  0  0  0  0  0  0  0  0  0  0  0
    3.7942   -1.3846    1.5396 H   0  0  0  0  0  0  0  0  0  0  0  0
    3.8625   -1.6346   -0.2485 H   0  0  0  0  0  0  0  0  0  0  0  0
    5.2925    0.0963    0.3957 H   0  0  0  0  0  0  0  0  0  0  0  0
    6.4475    2.2083    0.2410 H   0  0  0  0  0  0  0  0  0  0  0  0
    6.8787    4.0743   -1.1408 H   0  0  0  0  0  0  0  0  0  0  0  0
    7.3878    4.5902    0.4830 H   0  0  0  0  0  0  0  0  0  0  0  0
    6.8978    5.7725   -0.7501 H   0  0  0  0  0  0  0  0  0  0  0  0
    5.1448    9.0609    0.8674 H   0  0  0  0  0  0  0  0  0  0  0  0
    3.0114    4.9869    5.2570 H   0  0  0  0  0  0  0  0  0  0  0  0
    4.2010    2.7591    4.2520 H   0  0  0  0  0  0  0  0  0  0  0  0
    5.2277    2.9327    2.8396 H   0  0  0  0  0  0  0  0  0  0  0  0
    3.4589    2.6786    2.6721 H   0  0  0  0  0  0  0  0  0  0  0  0
    2.6763    4.2753   -0.0759 H   0  0  0  0  0  0  0  0  0  0  0  0
    1.5021    2.1179    0.0711 H   0  0  0  0  0  0  0  0  0  0  0  0
  1  2  1  0  0  0  0
  1 21  1  0  0  0  0
  1 22  1  0  0  0  0
  1 23  1  0  0  0  0
  2  3  1  0  0  0  0
  3  4  1  0  0  0  0
  3 20  2  0  0  0  0
  4  5  2  0  0  0  0
  4 24  1  0  0  0  0
  5  6  1  0  0  0  0
  5 25  1  0  0  0  0
  6  7  1  0  0  0  0
  6 19  2  0  0  0  0
  7  8  1  0  0  0  0
  7  9  1  0  0  0  0
  8 26  1  0  0  0  0
  8 27  1  0  0  0  0
  8 28  1  0  0  0  0
  9 10  1  0  0  0  0
  9 18  2  0  0  0  0
 10 11  2  0  0  0  0
 11 12  1  0  0  0  0
 11 29  1  0  0  0  0
 12 13  2  0  0  0  0
 13 14  1  0  0  0  0
 13 18  1  0  0  0  0
 14 15  1  0  0  0  0
 15 16  2  0  0  0  0
 15 30  1  0  0  0  0
 16 17  1  0  0  0  0
 16 18  1  0  0  0  0
 17 31  1  0  0  0  0
 17 32  1  0  0  0  0
 17 33  1  0  0  0  0
 19 20  1  0  0  0  0
 19 34  1  0  0  0  0
 20 35  1  0  0  0  0
M  END
$$$$
