CHEMBL3960730
 OpenBabel04072215373D

 49 52  0  0  0  0  0  0  0  0999 V2000
    2.5720    0.7741   -0.7705 C   0  0  0  0  0  0  0  0  0  0  0  0
    2.3422   -0.4129   -0.0127 O   0  0  0  0  0  0  0  0  0  0  0  0
    3.1596   -0.6536    1.0585 C   0  0  0  0  0  0  0  0  0  0  0  0
    4.3365    0.0576    1.3065 C   0  0  0  0  0  0  0  0  0  0  0  0
    5.0826   -0.1557    2.4890 C   0  0  0  0  0  0  0  0  0  0  0  0
    6.1981    0.5948    2.8952 C   0  0  0  0  0  0  0  0  0  0  0  0
    6.5904    1.7303    2.1348 N   0  0  0  0  0  0  0  0  0  0  0  0
    7.8689    2.3128    2.2456 C   0  0  0  0  0  0  0  0  0  0  0  0
    9.0107    1.4988    2.2244 C   0  0  0  0  0  0  0  0  0  0  0  0
   10.2807    2.0355    2.4210 C   0  0  0  0  0  0  0  0  0  0  0  0
   10.4281    3.4057    2.6253 C   0  0  0  0  0  0  0  0  0  0  0  0
   12.0210    4.0019    2.9222 Cl  0  0  0  0  0  0  0  0  0  0  0  0
    9.3030    4.2384    2.5965 C   0  0  0  0  0  0  0  0  0  0  0  0
    9.4161    5.9487    2.8262 Cl  0  0  0  0  0  0  0  0  0  0  0  0
    8.0273    3.6937    2.3943 C   0  0  0  0  0  0  0  0  0  0  0  0
    6.8875    0.3034    4.0165 N   0  0  0  0  0  0  0  0  0  0  0  0
    6.4589   -0.7197    4.7433 C   0  0  0  0  0  0  0  0  0  0  0  0
    5.4036   -1.4936    4.4654 N   0  0  0  0  0  0  0  0  0  0  0  0
    4.7329   -1.1940    3.3510 C   0  0  0  0  0  0  0  0  0  0  0  0
    3.6147   -1.9477    3.0521 C   0  0  0  0  0  0  0  0  0  0  0  0
    2.7772   -1.6578    1.9625 C   0  0  0  0  0  0  0  0  0  0  0  0
    1.5671   -2.3085    1.7649 O   0  0  0  0  0  0  0  0  0  0  0  0
    1.1002   -2.9865    2.9418 C   0  0  0  0  0  0  0  0  0  0  0  0
   -0.3221   -3.3847    2.8685 C   0  0  0  0  0  0  0  0  0  0  0  0
   -0.9032   -4.3214    3.5846 N   0  0  0  0  0  0  0  0  0  0  0  0
   -2.2335   -4.0466    3.4337 C   0  0  0  0  0  0  0  0  0  0  0  0
   -3.1306   -4.7378    4.1786 N   0  0  0  0  0  0  0  0  0  0  0  0
   -4.5533   -4.4973    4.0339 C   0  0  0  0  0  0  0  0  0  0  0  0
   -2.7469   -5.9287    4.9168 C   0  0  0  0  0  0  0  0  0  0  0  0
   -2.4750   -3.0287    2.5908 N   0  0  0  0  0  0  0  0  0  0  0  0
   -1.2053   -2.5744    2.2290 O   0  0  0  0  0  0  0  0  0  0  0  0
    3.2778    0.5719   -1.5835 H   0  0  0  0  0  0  0  0  0  0  0  0
    2.9195    1.6186   -0.1647 H   0  0  0  0  0  0  0  0  0  0  0  0
    1.6201    1.0842   -1.2103 H   0  0  0  0  0  0  0  0  0  0  0  0
    4.7029    0.7992    0.6055 H   0  0  0  0  0  0  0  0  0  0  0  0
    5.8385    2.4106    2.1490 H   0  0  0  0  0  0  0  0  0  0  0  0
    8.9058    0.4229    2.0825 H   0  0  0  0  0  0  0  0  0  0  0  0
   11.1404    1.3718    2.4322 H   0  0  0  0  0  0  0  0  0  0  0  0
    7.1603    4.3486    2.3945 H   0  0  0  0  0  0  0  0  0  0  0  0
    7.0097   -0.9563    5.6504 H   0  0  0  0  0  0  0  0  0  0  0  0
    3.4006   -2.7541    3.7450 H   0  0  0  0  0  0  0  0  0  0  0  0
    1.1787   -2.3254    3.8149 H   0  0  0  0  0  0  0  0  0  0  0  0
    1.6940   -3.8953    3.0970 H   0  0  0  0  0  0  0  0  0  0  0  0
   -4.7842   -3.5609    3.5156 H   0  0  0  0  0  0  0  0  0  0  0  0
   -5.0241   -4.4386    5.0218 H   0  0  0  0  0  0  0  0  0  0  0  0
   -5.0222   -5.3174    3.4805 H   0  0  0  0  0  0  0  0  0  0  0  0
   -1.6674   -6.0235    5.0759 H   0  0  0  0  0  0  0  0  0  0  0  0
   -3.0889   -6.8267    4.3910 H   0  0  0  0  0  0  0  0  0  0  0  0
   -3.2110   -5.9214    5.9099 H   0  0  0  0  0  0  0  0  0  0  0  0
  1  2  1  0  0  0  0
  1 32  1  0  0  0  0
  1 33  1  0  0  0  0
  1 34  1  0  0  0  0
  2  3  1  0  0  0  0
  3  4  1  0  0  0  0
  3 21  2  0  0  0  0
  4  5  2  0  0  0  0
  4 35  1  0  0  0  0
  5  6  1  0  0  0  0
  5 19  1  0  0  0  0
  6  7  1  0  0  0  0
  6 16  2  0  0  0  0
  7  8  1  0  0  0  0
  7 36  1  0  0  0  0
  8  9  1  0  0  0  0
  8 15  2  0  0  0  0
  9 10  2  0  0  0  0
  9 37  1  0  0  0  0
 10 11  1  0  0  0  0
 10 38  1  0  0  0  0
 11 12  1  0  0  0  0
 11 13  2  0  0  0  0
 13 14  1  0  0  0  0
 13 15  1  0  0  0  0
 15 39  1  0  0  0  0
 16 17  1  0  0  0  0
 17 18  2  0  0  0  0
 17 40  1  0  0  0  0
 18 19  1  0  0  0  0
 19 20  2  0  0  0  0
 20 21  1  0  0  0  0
 20 41  1  0  0  0  0
 21 22  1  0  0  0  0
 22 23  1  0  0  0  0
 23 24  1  0  0  0  0
 23 42  1  0  0  0  0
 23 43  1  0  0  0  0
 24 25  2  0  0  0  0
 24 31  1  0  0  0  0
 25 26  1  0  0  0  0
 26 27  1  0  0  0  0
 26 30  2  0  0  0  0
 27 28  1  0  0  0  0
 27 29  1  0  0  0  0
 28 44  1  0  0  0  0
 28 45  1  0  0  0  0
 28 46  1  0  0  0  0
 29 47  1  0  0  0  0
 29 48  1  0  0  0  0
 29 49  1  0  0  0  0
 30 31  1  0  0  0  0
M  END
$$$$
