CHEMBL1242472
 OpenBabel04072215363D

 45 47  0  0  0  0  0  0  0  0999 V2000
    0.7900    0.6624    1.9002 C   0  0  0  0  0  0  0  0  0  0  0  0
    2.2175    0.5635    2.4050 C   0  0  0  0  0  0  0  0  0  0  0  0
    3.0353    0.0766    1.3424 O   0  0  0  0  0  0  0  0  0  0  0  0
    4.3725   -0.0800    1.5902 C   0  0  0  0  0  0  0  0  0  0  0  0
    4.9753    0.2022    2.8230 C   0  0  0  0  0  0  0  0  0  0  0  0
    6.3380   -0.0444    3.0292 C   0  0  0  0  0  0  0  0  0  0  0  0
    7.1359   -0.5622    2.0059 C   0  0  0  0  0  0  0  0  0  0  0  0
    8.5556   -0.8420    2.2375 C   0  0  0  0  0  0  0  0  0  0  0  0
    9.2599   -0.0423    3.0617 N   0  0  0  0  0  0  0  0  0  0  0  0
   10.5191   -0.5212    2.9990 N   0  0  0  0  0  0  0  0  0  0  0  0
   11.6031    0.1821    3.6764 C   0  0  0  0  0  0  0  0  0  0  0  0
   11.7763    1.5955    3.1180 C   0  0  0  0  0  0  0  0  0  0  0  0
   11.4066    0.2105    5.1920 C   0  0  0  0  0  0  0  0  0  0  0  0
   10.6368   -1.6415    2.2238 C   0  0  0  0  0  0  0  0  0  0  0  0
   11.7596   -2.3450    1.9949 N   0  0  0  0  0  0  0  0  0  0  0  0
   11.5288   -3.3815    1.1741 C   0  0  0  0  0  0  0  0  0  0  0  0
   10.3628   -3.7502    0.6174 N   0  0  0  0  0  0  0  0  0  0  0  0
    9.2583   -3.0177    0.8747 C   0  0  0  0  0  0  0  0  0  0  0  0
    8.0924   -3.4648    0.2746 N   0  0  0  0  0  0  0  0  0  0  0  0
    9.3719   -1.8942    1.7102 C   0  0  0  0  0  0  0  0  0  0  0  0
    6.5464   -0.7881    0.7608 C   0  0  0  0  0  0  0  0  0  0  0  0
    5.1773   -0.5773    0.5531 C   0  0  0  0  0  0  0  0  0  0  0  0
    4.7495   -0.9940   -0.6823 O   0  0  0  0  0  0  0  0  0  0  0  0
    3.8170   -0.1421   -1.3322 C   0  0  0  0  0  0  0  0  0  0  0  0
    0.1232    1.0194    2.6904 H   0  0  0  0  0  0  0  0  0  0  0  0
    0.4351   -0.3128    1.5505 H   0  0  0  0  0  0  0  0  0  0  0  0
    0.7289    1.3493    1.0494 H   0  0  0  0  0  0  0  0  0  0  0  0
    2.2470   -0.1289    3.2539 H   0  0  0  0  0  0  0  0  0  0  0  0
    2.5518    1.5600    2.7168 H   0  0  0  0  0  0  0  0  0  0  0  0
    4.4118    0.6004    3.6608 H   0  0  0  0  0  0  0  0  0  0  0  0
    6.7731    0.1705    4.0051 H   0  0  0  0  0  0  0  0  0  0  0  0
   12.5248   -0.3750    3.4698 H   0  0  0  0  0  0  0  0  0  0  0  0
   10.8778    2.2039    3.2707 H   0  0  0  0  0  0  0  0  0  0  0  0
   11.9778    1.5657    2.0417 H   0  0  0  0  0  0  0  0  0  0  0  0
   12.6139    2.1058    3.6047 H   0  0  0  0  0  0  0  0  0  0  0  0
   10.5028    0.7615    5.4736 H   0  0  0  0  0  0  0  0  0  0  0  0
   12.2597    0.6936    5.6812 H   0  0  0  0  0  0  0  0  0  0  0  0
   11.3190   -0.8043    5.5944 H   0  0  0  0  0  0  0  0  0  0  0  0
   12.3866   -4.0002    0.9306 H   0  0  0  0  0  0  0  0  0  0  0  0
    8.2097   -4.3962   -0.1120 H   0  0  0  0  0  0  0  0  0  0  0  0
    7.2313   -3.3007    0.7777 H   0  0  0  0  0  0  0  0  0  0  0  0
    7.1427   -1.1309   -0.0814 H   0  0  0  0  0  0  0  0  0  0  0  0
    3.8971   -0.3349   -2.4072 H   0  0  0  0  0  0  0  0  0  0  0  0
    4.0381    0.9168   -1.1665 H   0  0  0  0  0  0  0  0  0  0  0  0
    2.7943   -0.3898   -1.0358 H   0  0  0  0  0  0  0  0  0  0  0  0
  1  2  1  0  0  0  0
  1 25  1  0  0  0  0
  1 26  1  0  0  0  0
  1 27  1  0  0  0  0
  2  3  1  0  0  0  0
  2 28  1  0  0  0  0
  2 29  1  0  0  0  0
  3  4  1  0  0  0  0
  4  5  1  0  0  0  0
  4 22  2  0  0  0  0
  5  6  2  0  0  0  0
  5 30  1  0  0  0  0
  6  7  1  0  0  0  0
  6 31  1  0  0  0  0
  7  8  1  0  0  0  0
  7 21  2  0  0  0  0
  8  9  2  0  0  0  0
  8 20  1  0  0  0  0
  9 10  1  0  0  0  0
 10 11  1  0  0  0  0
 10 14  1  0  0  0  0
 11 12  1  0  0  0  0
 11 13  1  0  0  0  0
 11 32  1  0  0  0  0
 12 33  1  0  0  0  0
 12 34  1  0  0  0  0
 12 35  1  0  0  0  0
 13 36  1  0  0  0  0
 13 37  1  0  0  0  0
 13 38  1  0  0  0  0
 14 15  1  0  0  0  0
 14 20  2  0  0  0  0
 15 16  2  0  0  0  0
 16 17  1  0  0  0  0
 16 39  1  0  0  0  0
 17 18  2  0  0  0  0
 18 19  1  0  0  0  0
 18 20  1  0  0  0  0
 19 40  1  0  0  0  0
 19 41  1  0  0  0  0
 21 22  1  0  0  0  0
 21 42  1  0  0  0  0
 22 23  1  0  0  0  0
 23 24  1  0  0  0  0
 24 43  1  0  0  0  0
 24 44  1  0  0  0  0
 24 45  1  0  0  0  0
M  END
$$$$
