CHEMBL248891
 OpenBabel04072215363D

 49 54  0  0  0  0  0  0  0  0999 V2000
    7.9312    0.3545   -4.3776 C   0  0  0  0  0  0  0  0  0  0  0  0
    7.0257    0.3799   -3.2803 O   0  0  0  0  0  0  0  0  0  0  0  0
    7.5538    1.1521   -2.2019 C   0  0  0  0  0  0  0  0  0  0  0  0
    6.5723    1.2100   -1.0646 C   0  0  0  0  0  0  0  0  0  0  0  0
    6.1295    0.0368   -0.4174 C   0  0  0  0  0  0  0  0  0  0  0  0
    5.2581    0.0836    0.6777 C   0  0  0  0  0  0  0  0  0  0  0  0
    4.7993    1.2997    1.1912 C   0  0  0  0  0  0  0  0  0  0  0  0
    5.2473    2.4509    0.5464 C   0  0  0  0  0  0  0  0  0  0  0  0
    5.0292    3.7822    0.7820 N   0  0  0  0  0  0  0  0  0  0  0  0
    5.7131    4.5029   -0.1596 C   0  0  0  0  0  0  0  0  0  0  0  0
    5.7044    5.9897   -0.2117 C   0  0  0  0  0  0  0  0  0  0  0  0
    5.0829    6.7221    0.7270 N   0  0  0  0  0  0  0  0  0  0  0  0
    5.3115    7.9896    0.3082 N   0  0  0  0  0  0  0  0  0  0  0  0
    5.9998    8.0752   -0.8573 C   0  0  0  0  0  0  0  0  0  0  0  0
    6.2874    9.2015   -1.5189 N   0  0  0  0  0  0  0  0  0  0  0  0
    6.9451    8.9485   -2.6843 C   0  0  0  0  0  0  0  0  0  0  0  0
    7.4061    7.7137   -3.1670 C   0  0  0  0  0  0  0  0  0  0  0  0
    8.1964    7.5902   -4.4233 C   0  0  0  0  0  0  0  0  0  0  0  0
    8.0244    6.4633   -5.2459 C   0  0  0  0  0  0  0  0  0  0  0  0
    8.6539    6.2407   -6.4211 N   0  0  0  0  0  0  0  0  0  0  0  0
    9.5006    7.2028   -6.8321 C   0  0  0  0  0  0  0  0  0  0  0  0
    9.7729    8.3741   -6.1314 C   0  0  0  0  0  0  0  0  0  0  0  0
   10.6618    9.3385   -6.6457 C   0  0  0  0  0  0  0  0  0  0  0  0
   10.9299   10.5152   -5.9502 C   0  0  0  0  0  0  0  0  0  0  0  0
   10.3480   10.7236   -4.7156 C   0  0  0  0  0  0  0  0  0  0  0  0
    9.5059    9.7512   -4.1787 C   0  0  0  0  0  0  0  0  0  0  0  0
    9.1344    8.5721   -4.8820 C   0  0  0  0  0  0  0  0  0  0  0  0
    7.0511    6.5876   -2.4042 C   0  0  0  0  0  0  0  0  0  0  0  0
    6.3058    6.7792   -1.2201 C   0  0  0  0  0  0  0  0  0  0  0  0
    6.3615    3.7119   -0.9887 N   0  0  0  0  0  0  0  0  0  0  0  0
    6.0958    2.4332   -0.5569 C   0  0  0  0  0  0  0  0  0  0  0  0
    7.4803   -0.2260   -5.1867 H   0  0  0  0  0  0  0  0  0  0  0  0
    8.8697   -0.1260   -4.0840 H   0  0  0  0  0  0  0  0  0  0  0  0
    8.1283    1.3674   -4.7442 H   0  0  0  0  0  0  0  0  0  0  0  0
    7.7809    2.1637   -2.5593 H   0  0  0  0  0  0  0  0  0  0  0  0
    8.4858    0.6978   -1.8456 H   0  0  0  0  0  0  0  0  0  0  0  0
    6.4735   -0.9312   -0.7786 H   0  0  0  0  0  0  0  0  0  0  0  0
    4.9359   -0.8457    1.1438 H   0  0  0  0  0  0  0  0  0  0  0  0
    4.1326    1.3392    2.0455 H   0  0  0  0  0  0  0  0  0  0  0  0
    4.4693    4.1953    1.5137 H   0  0  0  0  0  0  0  0  0  0  0  0
    4.9435    8.7641    0.8518 H   0  0  0  0  0  0  0  0  0  0  0  0
    7.0877    9.8596   -3.2620 H   0  0  0  0  0  0  0  0  0  0  0  0
    7.3332    5.6653   -4.9789 H   0  0  0  0  0  0  0  0  0  0  0  0
    9.9785    6.9931   -7.7845 H   0  0  0  0  0  0  0  0  0  0  0  0
   11.1505    9.1782   -7.6047 H   0  0  0  0  0  0  0  0  0  0  0  0
   11.6084   11.2576   -6.3622 H   0  0  0  0  0  0  0  0  0  0  0  0
   10.5474   11.6307   -4.1497 H   0  0  0  0  0  0  0  0  0  0  0  0
    9.1545    9.9467   -3.1701 H   0  0  0  0  0  0  0  0  0  0  0  0
    7.3100    5.5761   -2.6998 H   0  0  0  0  0  0  0  0  0  0  0  0
  1  2  1  0  0  0  0
  1 32  1  0  0  0  0
  1 33  1  0  0  0  0
  1 34  1  0  0  0  0
  2  3  1  0  0  0  0
  3  4  1  0  0  0  0
  3 35  1  0  0  0  0
  3 36  1  0  0  0  0
  4  5  1  0  0  0  0
  4 31  2  0  0  0  0
  5  6  2  0  0  0  0
  5 37  1  0  0  0  0
  6  7  1  0  0  0  0
  6 38  1  0  0  0  0
  7  8  2  0  0  0  0
  7 39  1  0  0  0  0
  8  9  1  0  0  0  0
  8 31  1  0  0  0  0
  9 10  1  0  0  0  0
  9 40  1  0  0  0  0
 10 11  1  0  0  0  0
 10 30  2  0  0  0  0
 11 12  2  0  0  0  0
 11 29  1  0  0  0  0
 12 13  1  0  0  0  0
 13 14  1  0  0  0  0
 13 41  1  0  0  0  0
 14 15  1  0  0  0  0
 14 29  2  0  0  0  0
 15 16  2  0  0  0  0
 16 17  1  0  0  0  0
 16 42  1  0  0  0  0
 17 18  1  0  0  0  0
 17 28  2  0  0  0  0
 18 19  1  0  0  0  0
 18 27  2  0  0  0  0
 19 20  2  0  0  0  0
 19 43  1  0  0  0  0
 20 21  1  0  0  0  0
 21 22  2  0  0  0  0
 21 44  1  0  0  0  0
 22 23  1  0  0  0  0
 22 27  1  0  0  0  0
 23 24  2  0  0  0  0
 23 45  1  0  0  0  0
 24 25  1  0  0  0  0
 24 46  1  0  0  0  0
 25 26  2  0  0  0  0
 25 47  1  0  0  0  0
 26 27  1  0  0  0  0
 26 48  1  0  0  0  0
 28 29  1  0  0  0  0
 28 49  1  0  0  0  0
 30 31  1  0  0  0  0
M  END
$$$$
