CHEMBL1076437
 OpenBabel04072215353D

 77 82  0  0  0  0  0  0  0  0999 V2000
    1.0510    0.7460    0.0041 C   0  0  0  0  0  0  0  0  0  0  0  0
    1.2136   -0.5951    0.7085 C   0  0  0  0  0  0  0  0  0  0  0  0
    1.4626   -0.4991    2.1558 N   0  0  0  0  0  0  0  0  0  0  0  0
    2.7212    0.2068    2.4934 C   0  0  0  0  0  0  0  0  0  0  0  0
    4.0098   -0.5284    2.0653 C   0  0  0  0  0  0  0  0  0  0  0  0
    4.0131   -1.9168    2.5658 N   0  0  0  0  0  0  0  0  0  0  0  0
    5.1287   -2.4763    3.1542 C   0  0  0  0  0  0  0  0  0  0  0  0
    5.4763   -3.8272    2.9866 C   0  0  0  0  0  0  0  0  0  0  0  0
    6.6035   -4.3615    3.6305 C   0  0  0  0  0  0  0  0  0  0  0  0
    6.9896   -5.7923    3.5442 C   0  0  0  0  0  0  0  0  0  0  0  0
    7.4675   -6.2988    4.5544 O   0  0  0  0  0  0  0  0  0  0  0  0
    6.8375   -6.3972    2.3129 N   0  0  0  0  0  0  0  0  0  0  0  0
    7.2167   -7.7271    2.0039 C   0  0  0  0  0  0  0  0  0  0  0  0
    7.6353   -8.6555    2.9513 C   0  0  0  0  0  0  0  0  0  0  0  0
    8.0936   -9.9113    2.5604 C   0  0  0  0  0  0  0  0  0  0  0  0
    8.0717  -10.2900    1.2144 C   0  0  0  0  0  0  0  0  0  0  0  0
    8.7156  -11.6040    0.8444 C   0  0  0  0  0  0  0  0  0  0  0  0
    7.5027   -9.4156    0.2564 C   0  0  0  0  0  0  0  0  0  0  0  0
    7.3674   -9.8590   -1.0711 N   0  0  0  0  0  0  0  0  0  0  0  0
    6.6162   -9.4107   -2.1223 C   0  0  0  0  0  0  0  0  0  0  0  0
    6.1994  -10.3214   -2.9888 N   0  0  0  0  0  0  0  0  0  0  0  0
    7.1086  -10.1596   -3.9998 C   0  0  0  0  0  0  0  0  0  0  0  0
    7.5380  -11.0828   -4.9605 C   0  0  0  0  0  0  0  0  0  0  0  0
    8.6017  -10.7194   -5.7904 C   0  0  0  0  0  0  0  0  0  0  0  0
    9.1640   -9.4407   -5.7211 C   0  0  0  0  0  0  0  0  0  0  0  0
    8.6928   -8.4747   -4.8224 C   0  0  0  0  0  0  0  0  0  0  0  0
    7.6952   -8.8914   -3.9383 C   0  0  0  0  0  0  0  0  0  0  0  0
    6.9935   -8.3060   -2.8900 N   0  0  0  0  0  0  0  0  0  0  0  0
    6.5853   -6.9465   -2.7808 C   0  0  0  0  0  0  0  0  0  0  0  0
    5.5055   -6.6183   -1.9764 C   0  0  0  0  0  0  0  0  0  0  0  0
    5.1546   -5.2863   -1.9273 C   0  0  0  0  0  0  0  0  0  0  0  0
    4.1278   -4.8523   -1.0855 N   0  0  0  0  0  0  0  0  0  0  0  0
    5.7920   -4.3402   -2.6203 N   0  0  0  0  0  0  0  0  0  0  0  0
    6.7966   -4.7568   -3.4033 C   0  0  0  0  0  0  0  0  0  0  0  0
    7.2261   -6.0217   -3.5285 N   0  0  0  0  0  0  0  0  0  0  0  0
    7.1723   -8.1182    0.6626 C   0  0  0  0  0  0  0  0  0  0  0  0
    7.4032   -3.5512    4.4445 C   0  0  0  0  0  0  0  0  0  0  0  0
    7.0900   -2.2074    4.6233 C   0  0  0  0  0  0  0  0  0  0  0  0
    7.9366   -1.3025    5.4740 C   0  0  0  0  0  0  0  0  0  0  0  0
    9.0536   -1.9001    5.9717 F   0  0  0  0  0  0  0  0  0  0  0  0
    8.3758   -0.2149    4.7790 F   0  0  0  0  0  0  0  0  0  0  0  0
    7.2615   -0.8092    6.5475 F   0  0  0  0  0  0  0  0  0  0  0  0
    5.9480   -1.6984    3.9899 C   0  0  0  0  0  0  0  0  0  0  0  0
    2.7868   -2.6904    2.3259 C   0  0  0  0  0  0  0  0  0  0  0  0
    1.5446   -1.8615    2.7502 C   0  0  0  0  0  0  0  0  0  0  0  0
    0.8070    0.5743   -1.0499 H   0  0  0  0  0  0  0  0  0  0  0  0
    1.9709    1.3373    0.0279 H   0  0  0  0  0  0  0  0  0  0  0  0
    0.2410    1.3338    0.4462 H   0  0  0  0  0  0  0  0  0  0  0  0
    1.9982   -1.1577    0.1919 H   0  0  0  0  0  0  0  0  0  0  0  0
    0.2795   -1.1516    0.5584 H   0  0  0  0  0  0  0  0  0  0  0  0
    2.7430    0.3309    3.5891 H   0  0  0  0  0  0  0  0  0  0  0  0
    2.7190    1.2255    2.0981 H   0  0  0  0  0  0  0  0  0  0  0  0
    4.8694    0.0547    2.4100 H   0  0  0  0  0  0  0  0  0  0  0  0
    4.0867   -0.5459    0.9716 H   0  0  0  0  0  0  0  0  0  0  0  0
    4.8615   -4.4668    2.3591 H   0  0  0  0  0  0  0  0  0  0  0  0
    6.5469   -5.8177    1.5334 H   0  0  0  0  0  0  0  0  0  0  0  0
    7.6405   -8.4336    4.0137 H   0  0  0  0  0  0  0  0  0  0  0  0
    8.4791  -10.5866    3.3213 H   0  0  0  0  0  0  0  0  0  0  0  0
    8.9961  -12.1798    1.7334 H   0  0  0  0  0  0  0  0  0  0  0  0
    9.6298  -11.4229    0.2694 H   0  0  0  0  0  0  0  0  0  0  0  0
    8.0378  -12.2387    0.2637 H   0  0  0  0  0  0  0  0  0  0  0  0
    7.3842  -10.8755   -1.0987 H   0  0  0  0  0  0  0  0  0  0  0  0
    7.1079  -12.0781   -4.9901 H   0  0  0  0  0  0  0  0  0  0  0  0
    9.0081  -11.4535   -6.4817 H   0  0  0  0  0  0  0  0  0  0  0  0
    9.9964   -9.1913   -6.3762 H   0  0  0  0  0  0  0  0  0  0  0  0
    9.1283   -7.4835   -4.7701 H   0  0  0  0  0  0  0  0  0  0  0  0
    4.9531   -7.3521   -1.4036 H   0  0  0  0  0  0  0  0  0  0  0  0
    3.2627   -5.3545   -1.2573 H   0  0  0  0  0  0  0  0  0  0  0  0
    4.0131   -3.8528   -1.2493 H   0  0  0  0  0  0  0  0  0  0  0  0
    7.3078   -4.0033   -3.9898 H   0  0  0  0  0  0  0  0  0  0  0  0
    6.9041   -7.3810   -0.0719 H   0  0  0  0  0  0  0  0  0  0  0  0
    8.2721   -3.9800    4.9445 H   0  0  0  0  0  0  0  0  0  0  0  0
    5.6743   -0.6663    4.2044 H   0  0  0  0  0  0  0  0  0  0  0  0
    2.7726   -3.6232    2.9010 H   0  0  0  0  0  0  0  0  0  0  0  0
    2.7274   -2.9630    1.2659 H   0  0  0  0  0  0  0  0  0  0  0  0
    1.5633   -1.7500    3.8436 H   0  0  0  0  0  0  0  0  0  0  0  0
    0.6294   -2.4232    2.5283 H   0  0  0  0  0  0  0  0  0  0  0  0
  1  2  1  0  0  0  0
  1 46  1  0  0  0  0
  1 47  1  0  0  0  0
  1 48  1  0  0  0  0
  2  3  1  0  0  0  0
  2 49  1  0  0  0  0
  2 50  1  0  0  0  0
  3  4  1  0  0  0  0
  3 45  1  0  0  0  0
  4  5  1  0  0  0  0
  4 51  1  0  0  0  0
  4 52  1  0  0  0  0
  5  6  1  0  0  0  0
  5 53  1  0  0  0  0
  5 54  1  0  0  0  0
  6  7  1  0  0  0  0
  6 44  1  0  0  0  0
  7  8  1  0  0  0  0
  7 43  2  0  0  0  0
  8  9  2  0  0  0  0
  8 55  1  0  0  0  0
  9 10  1  0  0  0  0
  9 37  1  0  0  0  0
 10 11  2  0  0  0  0
 10 12  1  0  0  0  0
 12 13  1  0  0  0  0
 12 56  1  0  0  0  0
 13 14  1  0  0  0  0
 13 36  2  0  0  0  0
 14 15  2  0  0  0  0
 14 57  1  0  0  0  0
 15 16  1  0  0  0  0
 15 58  1  0  0  0  0
 16 17  1  0  0  0  0
 16 18  2  0  0  0  0
 17 59  1  0  0  0  0
 17 60  1  0  0  0  0
 17 61  1  0  0  0  0
 18 19  1  0  0  0  0
 18 36  1  0  0  0  0
 19 20  1  0  0  0  0
 19 62  1  0  0  0  0
 20 21  2  0  0  0  0
 20 28  1  0  0  0  0
 21 22  1  0  0  0  0
 22 23  1  0  0  0  0
 22 27  2  0  0  0  0
 23 24  2  0  0  0  0
 23 63  1  0  0  0  0
 24 25  1  0  0  0  0
 24 64  1  0  0  0  0
 25 26  2  0  0  0  0
 25 65  1  0  0  0  0
 26 27  1  0  0  0  0
 26 66  1  0  0  0  0
 27 28  1  0  0  0  0
 28 29  1  0  0  0  0
 29 30  1  0  0  0  0
 29 35  2  0  0  0  0
 30 31  2  0  0  0  0
 30 67  1  0  0  0  0
 31 32  1  0  0  0  0
 31 33  1  0  0  0  0
 32 68  1  0  0  0  0
 32 69  1  0  0  0  0
 33 34  2  0  0  0  0
 34 35  1  0  0  0  0
 34 70  1  0  0  0  0
 36 71  1  0  0  0  0
 37 38  2  0  0  0  0
 37 72  1  0  0  0  0
 38 39  1  0  0  0  0
 38 43  1  0  0  0  0
 39 40  1  0  0  0  0
 39 41  1  0  0  0  0
 39 42  1  0  0  0  0
 43 73  1  0  0  0  0
 44 45  1  0  0  0  0
 44 74  1  0  0  0  0
 44 75  1  0  0  0  0
 45 76  1  0  0  0  0
 45 77  1  0  0  0  0
M  END
$$$$
