CHEMBL270827
 OpenBabel04072215363D

 53 58  0  0  0  0  0  0  0  0999 V2000
    3.2780    1.0137   -0.7981 C   0  0  0  0  0  0  0  0  0  0  0  0
    2.9097   -0.1447    0.1332 C   0  0  0  0  0  0  0  0  0  0  0  0
    3.2090   -1.4702   -0.5631 C   0  0  0  0  0  0  0  0  0  0  0  0
    3.4999   -0.0694    1.5692 C   0  0  0  0  0  0  0  0  0  0  0  0
    4.9426    0.0719    1.7199 N   0  0  0  0  0  0  0  0  0  0  0  0
    5.6075    1.3170    1.6552 C   0  0  0  0  0  0  0  0  0  0  0  0
    5.1149    2.6292    1.5190 C   0  0  0  0  0  0  0  0  0  0  0  0
    6.0295    3.6757    1.3433 C   0  0  0  0  0  0  0  0  0  0  0  0
    7.3989    3.4455    1.3627 C   0  0  0  0  0  0  0  0  0  0  0  0
    7.8904    2.1521    1.5204 C   0  0  0  0  0  0  0  0  0  0  0  0
    6.9904    1.0768    1.6380 C   0  0  0  0  0  0  0  0  0  0  0  0
    7.0473   -0.3016    1.6482 C   0  0  0  0  0  0  0  0  0  0  0  0
    8.1710   -1.0131    1.2047 C   0  0  0  0  0  0  0  0  0  0  0  0
    7.9002   -2.3137    0.7369 C   0  0  0  0  0  0  0  0  0  0  0  0
    6.6591   -2.9605    0.8727 C   0  0  0  0  0  0  0  0  0  0  0  0
    5.8380   -2.3775    1.8847 C   0  0  0  0  0  0  0  0  0  0  0  0
    5.8685   -0.9630    1.8623 C   0  0  0  0  0  0  0  0  0  0  0  0
    5.8944   -3.2223    3.2355 C   0  0  0  0  0  0  0  0  0  0  0  0
    6.9518   -4.4059    3.2396 C   0  0  0  0  0  0  0  0  0  0  0  0
    6.7536   -5.1556    1.9712 C   0  0  0  0  0  0  0  0  0  0  0  0
    6.3729   -6.4239    1.8258 N   0  0  0  0  0  0  0  0  0  0  0  0
    5.9007   -6.4442    0.5533 N   0  0  0  0  0  0  0  0  0  0  0  0
    5.2401   -7.6256    0.0556 C   0  0  0  0  0  0  0  0  0  0  0  0
    5.9054   -5.2123   -0.0547 C   0  0  0  0  0  0  0  0  0  0  0  0
    6.6182   -4.4060    0.7935 C   0  0  0  0  0  0  0  0  0  0  0  0
    9.1602   -2.8643    0.2719 C   0  0  0  0  0  0  0  0  0  0  0  0
    9.4771   -3.9395   -0.2167 O   0  0  0  0  0  0  0  0  0  0  0  0
   10.0885   -1.8676    0.5291 N   0  0  0  0  0  0  0  0  0  0  0  0
    9.5695   -0.6278    1.0603 C   0  0  0  0  0  0  0  0  0  0  0  0
    2.7198    0.9396   -1.7401 H   0  0  0  0  0  0  0  0  0  0  0  0
    4.3422    1.0111   -1.0539 H   0  0  0  0  0  0  0  0  0  0  0  0
    3.0180    1.9798   -0.3582 H   0  0  0  0  0  0  0  0  0  0  0  0
    1.8179   -0.0995    0.2570 H   0  0  0  0  0  0  0  0  0  0  0  0
    4.2674   -1.5622   -0.8196 H   0  0  0  0  0  0  0  0  0  0  0  0
    2.6348   -1.5472   -1.4953 H   0  0  0  0  0  0  0  0  0  0  0  0
    2.9216   -2.3171    0.0669 H   0  0  0  0  0  0  0  0  0  0  0  0
    3.1968   -0.9537    2.1416 H   0  0  0  0  0  0  0  0  0  0  0  0
    3.0479    0.7877    2.0845 H   0  0  0  0  0  0  0  0  0  0  0  0
    4.0514    2.8405    1.4944 H   0  0  0  0  0  0  0  0  0  0  0  0
    5.6621    4.6863    1.1793 H   0  0  0  0  0  0  0  0  0  0  0  0
    8.0948    4.2691    1.2265 H   0  0  0  0  0  0  0  0  0  0  0  0
    8.9625    1.9930    1.5323 H   0  0  0  0  0  0  0  0  0  0  0  0
    4.9003   -3.6525    3.3988 H   0  0  0  0  0  0  0  0  0  0  0  0
    6.1314   -2.5570    4.0733 H   0  0  0  0  0  0  0  0  0  0  0  0
    6.8573   -5.0485    4.1182 H   0  0  0  0  0  0  0  0  0  0  0  0
    7.9729   -3.9923    3.2488 H   0  0  0  0  0  0  0  0  0  0  0  0
    5.4816   -8.4751    0.6987 H   0  0  0  0  0  0  0  0  0  0  0  0
    5.5871   -7.8154   -0.9624 H   0  0  0  0  0  0  0  0  0  0  0  0
    4.1627   -7.4403    0.0660 H   0  0  0  0  0  0  0  0  0  0  0  0
    5.3608   -5.0211   -0.9693 H   0  0  0  0  0  0  0  0  0  0  0  0
   11.0651   -2.0483    0.3631 H   0  0  0  0  0  0  0  0  0  0  0  0
    9.7248    0.1596    0.3222 H   0  0  0  0  0  0  0  0  0  0  0  0
   10.0434   -0.4043    2.0198 H   0  0  0  0  0  0  0  0  0  0  0  0
  1  2  1  0  0  0  0
  1 30  1  0  0  0  0
  1 31  1  0  0  0  0
  1 32  1  0  0  0  0
  2  3  1  0  0  0  0
  2  4  1  0  0  0  0
  2 33  1  0  0  0  0
  3 34  1  0  0  0  0
  3 35  1  0  0  0  0
  3 36  1  0  0  0  0
  4  5  1  0  0  0  0
  4 37  1  0  0  0  0
  4 38  1  0  0  0  0
  5  6  1  0  0  0  0
  5 17  1  0  0  0  0
  6  7  1  0  0  0  0
  6 11  2  0  0  0  0
  7  8  2  0  0  0  0
  7 39  1  0  0  0  0
  8  9  1  0  0  0  0
  8 40  1  0  0  0  0
  9 10  2  0  0  0  0
  9 41  1  0  0  0  0
 10 11  1  0  0  0  0
 10 42  1  0  0  0  0
 11 12  1  0  0  0  0
 12 13  1  0  0  0  0
 12 17  2  0  0  0  0
 13 14  2  0  0  0  0
 13 29  1  0  0  0  0
 14 15  1  0  0  0  0
 14 26  1  0  0  0  0
 15 16  2  0  0  0  0
 15 25  1  0  0  0  0
 16 17  1  0  0  0  0
 16 18  1  0  0  0  0
 18 19  1  0  0  0  0
 18 43  1  0  0  0  0
 18 44  1  0  0  0  0
 19 20  1  0  0  0  0
 19 45  1  0  0  0  0
 19 46  1  0  0  0  0
 20 21  2  0  0  0  0
 20 25  1  0  0  0  0
 21 22  1  0  0  0  0
 22 23  1  0  0  0  0
 22 24  1  0  0  0  0
 23 47  1  0  0  0  0
 23 48  1  0  0  0  0
 23 49  1  0  0  0  0
 24 25  2  0  0  0  0
 24 50  1  0  0  0  0
 26 27  2  0  0  0  0
 26 28  1  0  0  0  0
 28 29  1  0  0  0  0
 28 51  1  0  0  0  0
 29 52  1  0  0  0  0
 29 53  1  0  0  0  0
M  END
$$$$
