CHEMBL3221542
 OpenBabel04072215363D

 58 59  0  0  0  0  0  0  0  0999 V2000
    5.3329    0.4183   -1.2198 C   0  0  0  0  0  0  0  0  0  0  0  0
    5.8120    0.9834    0.1117 C   0  0  0  0  0  0  0  0  0  0  0  0
    4.7194    0.8532    1.1755 C   0  0  0  0  0  0  0  0  0  0  0  0
    4.4673   -0.4820    1.4672 O   0  0  0  0  0  0  0  0  0  0  0  0
    5.1039   -1.2194    2.4197 C   0  0  0  0  0  0  0  0  0  0  0  0
    6.1972   -0.6901    3.1330 C   0  0  0  0  0  0  0  0  0  0  0  0
    6.8076   -1.4038    4.1526 C   0  0  0  0  0  0  0  0  0  0  0  0
    7.8491   -0.8412    4.8109 N   0  0  0  0  0  0  0  0  0  0  0  0
    8.4792   -1.4990    5.8112 C   0  0  0  0  0  0  0  0  0  0  0  0
    8.0733   -2.7420    6.1580 N   0  0  0  0  0  0  0  0  0  0  0  0
    7.0290   -3.3634    5.5403 C   0  0  0  0  0  0  0  0  0  0  0  0
    6.6432   -4.6631    5.9836 N   0  0  0  0  0  0  0  0  0  0  0  0
    7.5569   -5.6171    6.5194 C   0  0  0  0  0  0  0  0  0  0  0  0
    8.9315   -5.5295    6.2827 C   0  0  0  0  0  0  0  0  0  0  0  0
    9.7935   -6.5217    6.7212 C   0  0  0  0  0  0  0  0  0  0  0  0
    9.3286   -7.6588    7.4279 C   0  0  0  0  0  0  0  0  0  0  0  0
   10.2247   -8.7289    7.8096 N   0  0  0  0  0  0  0  0  0  0  0  0
   11.5897   -8.7231    7.7173 C   0  0  0  0  0  0  0  0  0  0  0  0
   12.2105   -7.7122    7.4320 O   0  0  0  0  0  0  0  0  0  0  0  0
   12.2763   -9.8784    7.9165 O   0  0  0  0  0  0  0  0  0  0  0  0
   13.5560  -10.0769    7.4213 C   0  0  0  0  0  0  0  0  0  0  0  0
   13.5331  -10.1105    5.8882 C   0  0  0  0  0  0  0  0  0  0  0  0
    7.9216   -7.7397    7.6842 C   0  0  0  0  0  0  0  0  0  0  0  0
    7.2486   -8.8795    8.4130 C   0  0  0  0  0  0  0  0  0  0  0  0
    7.0682   -6.7170    7.2258 C   0  0  0  0  0  0  0  0  0  0  0  0
    6.3467   -2.6879    4.4999 C   0  0  0  0  0  0  0  0  0  0  0  0
    5.2671   -3.2395    3.7810 C   0  0  0  0  0  0  0  0  0  0  0  0
    4.6497   -2.5267    2.7405 C   0  0  0  0  0  0  0  0  0  0  0  0
    3.6142   -3.1399    2.0984 O   0  0  0  0  0  0  0  0  0  0  0  0
    3.2629   -3.0197    0.7725 C   0  0  0  0  0  0  0  0  0  0  0  0
    1.3785    2.5720   -1.6205 Cl  0  0  0  0  0  0  0  0  0  0  0  0
    6.1176    0.5553   -1.9917 H   0  0  0  0  0  0  0  0  0  0  0  0
    4.4159    0.9569   -1.5438 H   0  0  0  0  0  0  0  0  0  0  0  0
    5.1050   -0.6633   -1.1236 H   0  0  0  0  0  0  0  0  0  0  0  0
    6.0547    2.0589   -0.0266 H   0  0  0  0  0  0  0  0  0  0  0  0
    6.7371    0.4582    0.4378 H   0  0  0  0  0  0  0  0  0  0  0  0
    3.7867    1.3361    0.8195 H   0  0  0  0  0  0  0  0  0  0  0  0
    4.9955    1.4166    2.0915 H   0  0  0  0  0  0  0  0  0  0  0  0
    6.5981    0.2890    2.9186 H   0  0  0  0  0  0  0  0  0  0  0  0
    9.2988   -1.0289    6.3338 H   0  0  0  0  0  0  0  0  0  0  0  0
    5.6639   -4.9617    5.8724 H   0  0  0  0  0  0  0  0  0  0  0  0
    9.3607   -4.7232    5.7071 H   0  0  0  0  0  0  0  0  0  0  0  0
   10.8127   -6.3631    6.4338 H   0  0  0  0  0  0  0  0  0  0  0  0
    9.8211   -9.6196    8.1195 H   0  0  0  0  0  0  0  0  0  0  0  0
   13.9449  -11.0482    7.7893 H   0  0  0  0  0  0  0  0  0  0  0  0
   14.2370   -9.2709    7.7751 H   0  0  0  0  0  0  0  0  0  0  0  0
   12.8806  -10.9391    5.5394 H   0  0  0  0  0  0  0  0  0  0  0  0
   14.5574  -10.2654    5.4915 H   0  0  0  0  0  0  0  0  0  0  0  0
   13.1417   -9.1569    5.4732 H   0  0  0  0  0  0  0  0  0  0  0  0
    7.7721   -9.8455    8.3343 H   0  0  0  0  0  0  0  0  0  0  0  0
    6.2490   -9.0681    7.9639 H   0  0  0  0  0  0  0  0  0  0  0  0
    7.0877   -8.6017    9.4762 H   0  0  0  0  0  0  0  0  0  0  0  0
    6.0016   -6.7843    7.4039 H   0  0  0  0  0  0  0  0  0  0  0  0
    4.8943   -4.2302    3.9971 H   0  0  0  0  0  0  0  0  0  0  0  0
    3.1377   -4.0380    0.3468 H   0  0  0  0  0  0  0  0  0  0  0  0
    4.0467   -2.5146    0.1705 H   0  0  0  0  0  0  0  0  0  0  0  0
    2.2953   -2.4837    0.6824 H   0  0  0  0  0  0  0  0  0  0  0  0
    1.5767    1.2482   -1.9369 H   0  0  0  0  0  0  0  0  0  0  0  0
  1  2  1  0  0  0  0
  1 32  1  0  0  0  0
  1 33  1  0  0  0  0
  1 34  1  0  0  0  0
  2  3  1  0  0  0  0
  2 35  1  0  0  0  0
  2 36  1  0  0  0  0
  3  4  1  0  0  0  0
  3 37  1  0  0  0  0
  3 38  1  0  0  0  0
  4  5  1  0  0  0  0
  5  6  1  0  0  0  0
  5 28  2  0  0  0  0
  6  7  2  0  0  0  0
  6 39  1  0  0  0  0
  7  8  1  0  0  0  0
  7 26  1  0  0  0  0
  8  9  2  0  0  0  0
  9 10  1  0  0  0  0
  9 40  1  0  0  0  0
 10 11  2  0  0  0  0
 11 12  1  0  0  0  0
 11 26  1  0  0  0  0
 12 13  1  0  0  0  0
 12 41  1  0  0  0  0
 13 14  1  0  0  0  0
 13 25  2  0  0  0  0
 14 15  2  0  0  0  0
 14 42  1  0  0  0  0
 15 16  1  0  0  0  0
 15 43  1  0  0  0  0
 16 17  1  0  0  0  0
 16 23  2  0  0  0  0
 17 18  1  0  0  0  0
 17 44  1  0  0  0  0
 18 19  2  0  0  0  0
 18 20  1  0  0  0  0
 20 21  1  0  0  0  0
 21 22  1  0  0  0  0
 21 45  1  0  0  0  0
 21 46  1  0  0  0  0
 22 47  1  0  0  0  0
 22 48  1  0  0  0  0
 22 49  1  0  0  0  0
 23 24  1  0  0  0  0
 23 25  1  0  0  0  0
 24 50  1  0  0  0  0
 24 51  1  0  0  0  0
 24 52  1  0  0  0  0
 25 53  1  0  0  0  0
 26 27  2  0  0  0  0
 27 28  1  0  0  0  0
 27 54  1  0  0  0  0
 28 29  1  0  0  0  0
 29 30  1  0  0  0  0
 30 55  1  0  0  0  0
 30 56  1  0  0  0  0
 30 57  1  0  0  0  0
 31 58  1  0  0  0  0
M  END
$$$$
