CHEMBL262371
 OpenBabel04072215363D

 74 78  0  0  0  0  0  0  0  0999 V2000
    6.9411   -6.1281   -4.2640 C   0  0  0  0  0  0  0  0  0  0  0  0
    7.3351   -4.8753   -3.7134 O   0  0  0  0  0  0  0  0  0  0  0  0
    6.3036   -4.0310   -3.4060 C   0  0  0  0  0  0  0  0  0  0  0  0
    5.0395   -4.4361   -2.9907 C   0  0  0  0  0  0  0  0  0  0  0  0
    4.0581   -3.4804   -2.7183 C   0  0  0  0  0  0  0  0  0  0  0  0
    4.3473   -2.1159   -2.8495 C   0  0  0  0  0  0  0  0  0  0  0  0
    3.0710   -0.9847   -2.5589 Cl  0  0  0  0  0  0  0  0  0  0  0  0
    5.6275   -1.6825   -3.2329 C   0  0  0  0  0  0  0  0  0  0  0  0
    5.9879   -0.3062   -3.2624 N   0  0  0  0  0  0  0  0  0  0  0  0
    6.9118    0.2799   -4.1596 C   0  0  0  0  0  0  0  0  0  0  0  0
    7.0795   -0.3540   -5.3420 N   0  0  0  0  0  0  0  0  0  0  0  0
    7.8759    0.2216   -6.2328 C   0  0  0  0  0  0  0  0  0  0  0  0
    8.4808    1.3959   -6.0925 N   0  0  0  0  0  0  0  0  0  0  0  0
    8.3265    2.0260   -4.9176 C   0  0  0  0  0  0  0  0  0  0  0  0
    8.9677    3.2531   -4.7882 C   0  0  0  0  0  0  0  0  0  0  0  0
    8.9312    3.9805   -3.6050 C   0  0  0  0  0  0  0  0  0  0  0  0
    9.5942    5.1884   -3.5897 O   0  0  0  0  0  0  0  0  0  0  0  0
   10.0602    5.5886   -2.2899 C   0  0  0  0  0  0  0  0  0  0  0  0
   10.7919    6.9279   -2.3413 C   0  0  0  0  0  0  0  0  0  0  0  0
   11.2868    7.3463   -0.9425 C   0  0  0  0  0  0  0  0  0  0  0  0
   12.2473    6.4207   -0.3125 N   0  0  0  0  0  0  0  0  0  0  0  0
   13.4942    6.2869   -1.0957 C   0  0  0  0  0  0  0  0  0  0  0  0
   14.5702    5.4223   -0.3921 C   0  0  0  0  0  0  0  0  0  0  0  0
   14.9009    5.8247    0.9872 N   0  0  0  0  0  0  0  0  0  0  0  0
   15.7220    7.0325    1.0199 C   0  0  0  0  0  0  0  0  0  0  0  0
   13.6487    5.9876    1.7489 C   0  0  0  0  0  0  0  0  0  0  0  0
   12.5757    6.8687    1.0607 C   0  0  0  0  0  0  0  0  0  0  0  0
    8.2235    3.4620   -2.5279 C   0  0  0  0  0  0  0  0  0  0  0  0
    7.5828    2.2212   -2.6064 C   0  0  0  0  0  0  0  0  0  0  0  0
    6.9652    1.6603   -1.5110 O   0  0  0  0  0  0  0  0  0  0  0  0
    7.4155    2.0243   -0.1833 C   0  0  0  0  0  0  0  0  0  0  0  0
    8.8227    1.4882    0.1210 C   0  0  0  0  0  0  0  0  0  0  0  0
    9.1515    1.5882    1.6041 C   0  0  0  0  0  0  0  0  0  0  0  0
    8.1556    0.9287    2.3799 O   0  0  0  0  0  0  0  0  0  0  0  0
    6.8846    1.5579    2.2508 C   0  0  0  0  0  0  0  0  0  0  0  0
    6.3835    1.4882    0.8162 C   0  0  0  0  0  0  0  0  0  0  0  0
    7.5691    1.5019   -3.8539 C   0  0  0  0  0  0  0  0  0  0  0  0
    6.5989   -2.6673   -3.4832 C   0  0  0  0  0  0  0  0  0  0  0  0
    7.8446   -6.6523   -4.5888 H   0  0  0  0  0  0  0  0  0  0  0  0
    6.2976   -5.9900   -5.1407 H   0  0  0  0  0  0  0  0  0  0  0  0
    6.4516   -6.7541   -3.5125 H   0  0  0  0  0  0  0  0  0  0  0  0
    4.7961   -5.4840   -2.8524 H   0  0  0  0  0  0  0  0  0  0  0  0
    3.0729   -3.8103   -2.3979 H   0  0  0  0  0  0  0  0  0  0  0  0
    5.1783    0.3034   -3.1614 H   0  0  0  0  0  0  0  0  0  0  0  0
    8.0455   -0.3221   -7.1604 H   0  0  0  0  0  0  0  0  0  0  0  0
    9.5268    3.6451   -5.6350 H   0  0  0  0  0  0  0  0  0  0  0  0
   10.7271    4.8100   -1.9052 H   0  0  0  0  0  0  0  0  0  0  0  0
    9.2116    5.7294   -1.6145 H   0  0  0  0  0  0  0  0  0  0  0  0
   10.1016    7.6960   -2.7150 H   0  0  0  0  0  0  0  0  0  0  0  0
   11.6099    6.9007   -3.0695 H   0  0  0  0  0  0  0  0  0  0  0  0
   10.4029    7.4164   -0.2921 H   0  0  0  0  0  0  0  0  0  0  0  0
   11.7086    8.3569   -1.0010 H   0  0  0  0  0  0  0  0  0  0  0  0
   13.9125    7.2766   -1.3173 H   0  0  0  0  0  0  0  0  0  0  0  0
   13.2741    5.8016   -2.0527 H   0  0  0  0  0  0  0  0  0  0  0  0
   15.4787    5.3987   -1.0071 H   0  0  0  0  0  0  0  0  0  0  0  0
   14.2132    4.3840   -0.3596 H   0  0  0  0  0  0  0  0  0  0  0  0
   16.6563    6.8735    0.4700 H   0  0  0  0  0  0  0  0  0  0  0  0
   16.0079    7.2695    2.0508 H   0  0  0  0  0  0  0  0  0  0  0  0
   15.2239    7.9096    0.5947 H   0  0  0  0  0  0  0  0  0  0  0  0
   13.8655    6.3828    2.7491 H   0  0  0  0  0  0  0  0  0  0  0  0
   13.2244    4.9883    1.9151 H   0  0  0  0  0  0  0  0  0  0  0  0
   12.9200    7.9108    1.0517 H   0  0  0  0  0  0  0  0  0  0  0  0
   11.6693    6.8351    1.6780 H   0  0  0  0  0  0  0  0  0  0  0  0
    8.1543    4.0362   -1.6182 H   0  0  0  0  0  0  0  0  0  0  0  0
    7.3997    3.1105   -0.0547 H   0  0  0  0  0  0  0  0  0  0  0  0
    9.5779    2.0428   -0.4481 H   0  0  0  0  0  0  0  0  0  0  0  0
    8.8956    0.4441   -0.2045 H   0  0  0  0  0  0  0  0  0  0  0  0
    9.2346    2.6325    1.9293 H   0  0  0  0  0  0  0  0  0  0  0  0
   10.1122    1.1065    1.8115 H   0  0  0  0  0  0  0  0  0  0  0  0
    6.9577    2.5942    2.6029 H   0  0  0  0  0  0  0  0  0  0  0  0
    6.1865    1.0385    2.9153 H   0  0  0  0  0  0  0  0  0  0  0  0
    5.4557    2.0659    0.7234 H   0  0  0  0  0  0  0  0  0  0  0  0
    6.1276    0.4530    0.5607 H   0  0  0  0  0  0  0  0  0  0  0  0
    7.6088   -2.3717   -3.7582 H   0  0  0  0  0  0  0  0  0  0  0  0
  1  2  1  0  0  0  0
  1 39  1  0  0  0  0
  1 40  1  0  0  0  0
  1 41  1  0  0  0  0
  2  3  1  0  0  0  0
  3  4  1  0  0  0  0
  3 38  2  0  0  0  0
  4  5  2  0  0  0  0
  4 42  1  0  0  0  0
  5  6  1  0  0  0  0
  5 43  1  0  0  0  0
  6  7  1  0  0  0  0
  6  8  2  0  0  0  0
  8  9  1  0  0  0  0
  8 38  1  0  0  0  0
  9 10  1  0  0  0  0
  9 44  1  0  0  0  0
 10 11  1  0  0  0  0
 10 37  2  0  0  0  0
 11 12  2  0  0  0  0
 12 13  1  0  0  0  0
 12 45  1  0  0  0  0
 13 14  2  0  0  0  0
 14 15  1  0  0  0  0
 14 37  1  0  0  0  0
 15 16  2  0  0  0  0
 15 46  1  0  0  0  0
 16 17  1  0  0  0  0
 16 28  1  0  0  0  0
 17 18  1  0  0  0  0
 18 19  1  0  0  0  0
 18 47  1  0  0  0  0
 18 48  1  0  0  0  0
 19 20  1  0  0  0  0
 19 49  1  0  0  0  0
 19 50  1  0  0  0  0
 20 21  1  0  0  0  0
 20 51  1  0  0  0  0
 20 52  1  0  0  0  0
 21 22  1  0  0  0  0
 21 27  1  0  0  0  0
 22 23  1  0  0  0  0
 22 53  1  0  0  0  0
 22 54  1  0  0  0  0
 23 24  1  0  0  0  0
 23 55  1  0  0  0  0
 23 56  1  0  0  0  0
 24 25  1  0  0  0  0
 24 26  1  0  0  0  0
 25 57  1  0  0  0  0
 25 58  1  0  0  0  0
 25 59  1  0  0  0  0
 26 27  1  0  0  0  0
 26 60  1  0  0  0  0
 26 61  1  0  0  0  0
 27 62  1  0  0  0  0
 27 63  1  0  0  0  0
 28 29  2  0  0  0  0
 28 64  1  0  0  0  0
 29 30  1  0  0  0  0
 29 37  1  0  0  0  0
 30 31  1  0  0  0  0
 31 32  1  0  0  0  0
 31 36  1  0  0  0  0
 31 65  1  0  0  0  0
 32 33  1  0  0  0  0
 32 66  1  0  0  0  0
 32 67  1  0  0  0  0
 33 34  1  0  0  0  0
 33 68  1  0  0  0  0
 33 69  1  0  0  0  0
 34 35  1  0  0  0  0
 35 36  1  0  0  0  0
 35 70  1  0  0  0  0
 35 71  1  0  0  0  0
 36 72  1  0  0  0  0
 36 73  1  0  0  0  0
 38 74  1  0  0  0  0
M  END
$$$$
