CHEMBL233875
 OpenBabel04072215363D

 36 39  0  0  0  0  0  0  0  0999 V2000
   -3.1327    0.2984    0.1754 N   0  0  0  0  0  0  0  0  0  0  0  0
   -1.9773    0.1844    0.1430 C   0  0  0  0  0  0  0  0  0  0  0  0
   -0.5608    0.0762    0.0777 C   0  0  0  0  0  0  0  0  0  0  0  0
    0.1973    1.2286    0.1069 C   0  0  0  0  0  0  0  0  0  0  0  0
    1.5444    1.2504    0.1114 N   0  0  0  0  0  0  0  0  0  0  0  0
    2.1671    0.0675    0.1021 C   0  0  0  0  0  0  0  0  0  0  0  0
    3.5561    0.0960    0.2194 N   0  0  0  0  0  0  0  0  0  0  0  0
    4.3250   -0.9252    0.6419 C   0  0  0  0  0  0  0  0  0  0  0  0
    5.5058   -0.8608    1.2135 N   0  0  0  0  0  0  0  0  0  0  0  0
    5.8165   -2.1588    1.5553 C   0  0  0  0  0  0  0  0  0  0  0  0
    6.9282   -2.6704    2.2403 C   0  0  0  0  0  0  0  0  0  0  0  0
    6.9902   -4.0505    2.4818 C   0  0  0  0  0  0  0  0  0  0  0  0
    5.9711   -4.9036    2.0473 C   0  0  0  0  0  0  0  0  0  0  0  0
    4.8565   -4.4124    1.3606 C   0  0  0  0  0  0  0  0  0  0  0  0
    4.8225   -3.0363    1.1385 C   0  0  0  0  0  0  0  0  0  0  0  0
    3.9096   -2.2267    0.5275 N   0  0  0  0  0  0  0  0  0  0  0  0
    1.5080   -1.1069    0.0337 N   0  0  0  0  0  0  0  0  0  0  0  0
    0.1475   -1.1111    0.0157 C   0  0  0  0  0  0  0  0  0  0  0  0
   -0.4411   -2.4770   -0.0639 C   0  0  0  0  0  0  0  0  0  0  0  0
    0.2022   -3.5741    0.5487 C   0  0  0  0  0  0  0  0  0  0  0  0
   -0.3145   -4.8730    0.4694 C   0  0  0  0  0  0  0  0  0  0  0  0
   -1.5045   -5.1074   -0.2088 C   0  0  0  0  0  0  0  0  0  0  0  0
   -2.1613   -4.0489   -0.8248 C   0  0  0  0  0  0  0  0  0  0  0  0
   -1.6250   -2.7573   -0.7711 C   0  0  0  0  0  0  0  0  0  0  0  0
   -0.2671    2.2118    0.1427 H   0  0  0  0  0  0  0  0  0  0  0  0
    3.8791    1.0374    0.3939 H   0  0  0  0  0  0  0  0  0  0  0  0
    7.7118   -2.0044    2.5818 H   0  0  0  0  0  0  0  0  0  0  0  0
    7.8427   -4.4604    3.0180 H   0  0  0  0  0  0  0  0  0  0  0  0
    6.0442   -5.9701    2.2492 H   0  0  0  0  0  0  0  0  0  0  0  0
    4.0621   -5.0694    1.0249 H   0  0  0  0  0  0  0  0  0  0  0  0
    3.0260   -2.4950    0.1192 H   0  0  0  0  0  0  0  0  0  0  0  0
    1.1240   -3.4283    1.1084 H   0  0  0  0  0  0  0  0  0  0  0  0
    0.2113   -5.6993    0.9423 H   0  0  0  0  0  0  0  0  0  0  0  0
   -1.9179   -6.1112   -0.2620 H   0  0  0  0  0  0  0  0  0  0  0  0
   -3.0932   -4.2240   -1.3583 H   0  0  0  0  0  0  0  0  0  0  0  0
   -2.1601   -1.9823   -1.3130 H   0  0  0  0  0  0  0  0  0  0  0  0
  1  2  3  0  0  0  0
  2  3  1  0  0  0  0
  3  4  1  0  0  0  0
  3 18  2  0  0  0  0
  4  5  2  0  0  0  0
  4 25  1  0  0  0  0
  5  6  1  0  0  0  0
  6  7  1  0  0  0  0
  6 17  2  0  0  0  0
  7  8  1  0  0  0  0
  7 26  1  0  0  0  0
  8  9  2  0  0  0  0
  8 16  1  0  0  0  0
  9 10  1  0  0  0  0
 10 11  1  0  0  0  0
 10 15  2  0  0  0  0
 11 12  2  0  0  0  0
 11 27  1  0  0  0  0
 12 13  1  0  0  0  0
 12 28  1  0  0  0  0
 13 14  2  0  0  0  0
 13 29  1  0  0  0  0
 14 15  1  0  0  0  0
 14 30  1  0  0  0  0
 15 16  1  0  0  0  0
 16 31  1  0  0  0  0
 17 18  1  0  0  0  0
 18 19  1  0  0  0  0
 19 20  1  0  0  0  0
 19 24  2  0  0  0  0
 20 21  2  0  0  0  0
 20 32  1  0  0  0  0
 21 22  1  0  0  0  0
 21 33  1  0  0  0  0
 22 23  2  0  0  0  0
 22 34  1  0  0  0  0
 23 24  1  0  0  0  0
 23 35  1  0  0  0  0
 24 36  1  0  0  0  0
M  END
$$$$
