CHEMBL3985004
 OpenBabel04072215373D

 63 66  0  0  0  0  0  0  0  0999 V2000
    1.0467    0.1203   -0.1623 O   0  0  0  0  0  0  0  0  0  0  0  0
    2.2410    0.2345    0.1422 C   0  0  0  0  0  0  0  0  0  0  0  0
    2.9721   -0.7888    0.9827 C   0  0  0  0  0  0  0  0  0  0  0  0
    2.0612   -1.9475    1.3981 C   0  0  0  0  0  0  0  0  0  0  0  0
    2.7966   -2.9828    2.2528 C   0  0  0  0  0  0  0  0  0  0  0  0
    1.8588   -4.1255    2.6477 C   0  0  0  0  0  0  0  0  0  0  0  0
    2.5676   -5.1740    3.5026 C   0  0  0  0  0  0  0  0  0  0  0  0
    1.6101   -6.3029    3.8832 C   0  0  0  0  0  0  0  0  0  0  0  0
    2.3240   -7.2528    4.6778 O   0  0  0  0  0  0  0  0  0  0  0  0
    1.6107   -8.3407    5.1039 C   0  0  0  0  0  0  0  0  0  0  0  0
    0.5345   -8.9127    4.4271 C   0  0  0  0  0  0  0  0  0  0  0  0
   -0.0884  -10.0602    4.9329 C   0  0  0  0  0  0  0  0  0  0  0  0
    0.3522  -10.6491    6.1236 C   0  0  0  0  0  0  0  0  0  0  0  0
   -0.3181  -11.8269    6.6678 C   0  0  0  0  0  0  0  0  0  0  0  0
   -1.0084  -12.8524    6.0334 C   0  0  0  0  0  0  0  0  0  0  0  0
   -1.4810  -13.7643    7.0159 C   0  0  0  0  0  0  0  0  0  0  0  0
   -2.1898  -14.9820    7.0303 C   0  0  0  0  0  0  0  0  0  0  0  0
   -2.6068  -15.5864    5.8552 N   0  0  0  0  0  0  0  0  0  0  0  0
   -2.7449  -17.0278    5.8316 C   0  0  0  0  0  0  0  0  0  0  0  0
   -2.5088  -17.5141    4.4133 C   0  0  0  0  0  0  0  0  0  0  0  0
   -1.2908  -17.2605    3.7594 C   0  0  0  0  0  0  0  0  0  0  0  0
   -1.0474  -17.7729    2.4833 C   0  0  0  0  0  0  0  0  0  0  0  0
   -2.0136  -18.5499    1.8476 C   0  0  0  0  0  0  0  0  0  0  0  0
   -3.2356  -18.7897    2.4733 C   0  0  0  0  0  0  0  0  0  0  0  0
   -3.4863  -18.2654    3.7444 C   0  0  0  0  0  0  0  0  0  0  0  0
   -2.4017  -15.5737    8.2309 N   0  0  0  0  0  0  0  0  0  0  0  0
   -1.9437  -14.9643    9.3458 C   0  0  0  0  0  0  0  0  0  0  0  0
   -1.2616  -13.8096    9.4449 N   0  0  0  0  0  0  0  0  0  0  0  0
   -1.0573  -13.2678    8.2389 C   0  0  0  0  0  0  0  0  0  0  0  0
   -0.3765  -12.1046    8.0200 N   0  0  0  0  0  0  0  0  0  0  0  0
    1.4442  -10.0785    6.7886 C   0  0  0  0  0  0  0  0  0  0  0  0
    2.0665   -8.9350    6.2820 C   0  0  0  0  0  0  0  0  0  0  0  0
    2.9688    1.3184   -0.2811 N   0  0  0  0  0  0  0  0  0  0  0  0
    2.4496    2.3527   -1.0590 O   0  0  0  0  0  0  0  0  0  0  0  0
    3.3612   -0.2936    1.8814 H   0  0  0  0  0  0  0  0  0  0  0  0
    3.8199   -1.1811    0.4066 H   0  0  0  0  0  0  0  0  0  0  0  0
    1.6539   -2.4355    0.5029 H   0  0  0  0  0  0  0  0  0  0  0  0
    1.2022   -1.5568    1.9594 H   0  0  0  0  0  0  0  0  0  0  0  0
    3.1919   -2.5035    3.1551 H   0  0  0  0  0  0  0  0  0  0  0  0
    3.6506   -3.3838    1.6941 H   0  0  0  0  0  0  0  0  0  0  0  0
    1.4600   -4.5997    1.7419 H   0  0  0  0  0  0  0  0  0  0  0  0
    1.0027   -3.7218    3.2017 H   0  0  0  0  0  0  0  0  0  0  0  0
    2.9845   -4.7165    4.4080 H   0  0  0  0  0  0  0  0  0  0  0  0
    3.4208   -5.5945    2.9549 H   0  0  0  0  0  0  0  0  0  0  0  0
    1.2385   -6.7529    2.9564 H   0  0  0  0  0  0  0  0  0  0  0  0
    0.7690   -5.9050    4.4640 H   0  0  0  0  0  0  0  0  0  0  0  0
    0.1653   -8.5064    3.4921 H   0  0  0  0  0  0  0  0  0  0  0  0
   -0.9311  -10.4795    4.3865 H   0  0  0  0  0  0  0  0  0  0  0  0
   -1.1309  -12.9455    4.9597 H   0  0  0  0  0  0  0  0  0  0  0  0
   -3.2783  -15.0575    5.3129 H   0  0  0  0  0  0  0  0  0  0  0  0
   -3.7345  -17.3540    6.1756 H   0  0  0  0  0  0  0  0  0  0  0  0
   -1.9981  -17.5065    6.4794 H   0  0  0  0  0  0  0  0  0  0  0  0
   -0.5221  -16.6654    4.2501 H   0  0  0  0  0  0  0  0  0  0  0  0
   -0.0977  -17.5767    1.9928 H   0  0  0  0  0  0  0  0  0  0  0  0
   -1.8125  -18.9697    0.8655 H   0  0  0  0  0  0  0  0  0  0  0  0
   -3.9889  -19.3964    1.9769 H   0  0  0  0  0  0  0  0  0  0  0  0
   -4.4456  -18.4595    4.2172 H   0  0  0  0  0  0  0  0  0  0  0  0
   -2.1451  -15.4775   10.2804 H   0  0  0  0  0  0  0  0  0  0  0  0
    0.0218  -11.5399    8.7554 H   0  0  0  0  0  0  0  0  0  0  0  0
    1.8288  -10.5270    7.6999 H   0  0  0  0  0  0  0  0  0  0  0  0
    2.9107   -8.5053    6.8145 H   0  0  0  0  0  0  0  0  0  0  0  0
    3.9436    1.3851   -0.0230 H   0  0  0  0  0  0  0  0  0  0  0  0
    1.5207    2.1149   -1.2436 H   0  0  0  0  0  0  0  0  0  0  0  0
  1  2  2  0  0  0  0
  2  3  1  0  0  0  0
  2 33  1  0  0  0  0
  3  4  1  0  0  0  0
  3 35  1  0  0  0  0
  3 36  1  0  0  0  0
  4  5  1  0  0  0  0
  4 37  1  0  0  0  0
  4 38  1  0  0  0  0
  5  6  1  0  0  0  0
  5 39  1  0  0  0  0
  5 40  1  0  0  0  0
  6  7  1  0  0  0  0
  6 41  1  0  0  0  0
  6 42  1  0  0  0  0
  7  8  1  0  0  0  0
  7 43  1  0  0  0  0
  7 44  1  0  0  0  0
  8  9  1  0  0  0  0
  8 45  1  0  0  0  0
  8 46  1  0  0  0  0
  9 10  1  0  0  0  0
 10 11  1  0  0  0  0
 10 32  2  0  0  0  0
 11 12  2  0  0  0  0
 11 47  1  0  0  0  0
 12 13  1  0  0  0  0
 12 48  1  0  0  0  0
 13 14  1  0  0  0  0
 13 31  2  0  0  0  0
 14 15  2  0  0  0  0
 14 30  1  0  0  0  0
 15 16  1  0  0  0  0
 15 49  1  0  0  0  0
 16 17  1  0  0  0  0
 16 29  2  0  0  0  0
 17 18  1  0  0  0  0
 17 26  2  0  0  0  0
 18 19  1  0  0  0  0
 18 50  1  0  0  0  0
 19 20  1  0  0  0  0
 19 51  1  0  0  0  0
 19 52  1  0  0  0  0
 20 21  1  0  0  0  0
 20 25  2  0  0  0  0
 21 22  2  0  0  0  0
 21 53  1  0  0  0  0
 22 23  1  0  0  0  0
 22 54  1  0  0  0  0
 23 24  2  0  0  0  0
 23 55  1  0  0  0  0
 24 25  1  0  0  0  0
 24 56  1  0  0  0  0
 25 57  1  0  0  0  0
 26 27  1  0  0  0  0
 27 28  2  0  0  0  0
 27 58  1  0  0  0  0
 28 29  1  0  0  0  0
 29 30  1  0  0  0  0
 30 59  1  0  0  0  0
 31 32  1  0  0  0  0
 31 60  1  0  0  0  0
 32 61  1  0  0  0  0
 33 34  1  0  0  0  0
 33 62  1  0  0  0  0
 34 63  1  0  0  0  0
M  END
$$$$
