CHEMBL1988075
 OpenBabel04072215363D

 54 58  0  0  0  0  0  0  0  0999 V2000
    2.4627   -0.4599    0.4286 C   0  0  0  0  0  0  0  0  0  0  0  0
    0.9858   -0.2568    0.2836 C   0  0  0  0  0  0  0  0  0  0  0  0
    0.4780    0.9139   -0.2540 C   0  0  0  0  0  0  0  0  0  0  0  0
   -0.9072    1.0765   -0.3176 C   0  0  0  0  0  0  0  0  0  0  0  0
   -1.7790    0.0667    0.1034 C   0  0  0  0  0  0  0  0  0  0  0  0
   -3.2485    0.1940    0.0347 C   0  0  0  0  0  0  0  0  0  0  0  0
   -4.0669   -0.2937    1.0464 C   0  0  0  0  0  0  0  0  0  0  0  0
   -5.4079   -0.2615    1.0593 N   0  0  0  0  0  0  0  0  0  0  0  0
   -6.0765    0.3110    0.0436 C   0  0  0  0  0  0  0  0  0  0  0  0
   -7.4532    0.2324    0.1841 N   0  0  0  0  0  0  0  0  0  0  0  0
   -5.3757    0.9091   -1.0446 C   0  0  0  0  0  0  0  0  0  0  0  0
   -5.8395    1.6698   -2.2216 C   0  0  0  0  0  0  0  0  0  0  0  0
   -7.1988    2.0778   -2.6043 C   0  0  0  0  0  0  0  0  0  0  0  0
   -8.1226    2.4555   -1.6352 C   0  0  0  0  0  0  0  0  0  0  0  0
   -9.4489    2.7131   -1.9754 C   0  0  0  0  0  0  0  0  0  0  0  0
   -9.8604    2.7358   -3.3084 C   0  0  0  0  0  0  0  0  0  0  0  0
  -11.1865    3.0451   -3.6785 N   0  0  0  0  0  0  0  0  0  0  0  0
  -12.0757    3.7177   -2.8596 C   0  0  0  0  0  0  0  0  0  0  0  0
  -11.7816    4.2459   -1.7928 O   0  0  0  0  0  0  0  0  0  0  0  0
  -13.3626    3.7032   -3.3714 N   0  0  0  0  0  0  0  0  0  0  0  0
  -14.4083    4.3944   -2.7151 C   0  0  0  0  0  0  0  0  0  0  0  0
  -14.2014    5.6623   -2.1482 C   0  0  0  0  0  0  0  0  0  0  0  0
  -15.2215    6.3031   -1.4455 C   0  0  0  0  0  0  0  0  0  0  0  0
  -16.4545    5.6757   -1.3018 C   0  0  0  0  0  0  0  0  0  0  0  0
  -16.6579    4.4260   -1.8785 C   0  0  0  0  0  0  0  0  0  0  0  0
  -17.8371    3.8120   -1.7126 F   0  0  0  0  0  0  0  0  0  0  0  0
  -15.6518    3.7882   -2.6070 C   0  0  0  0  0  0  0  0  0  0  0  0
   -8.9293    2.4318   -4.3003 C   0  0  0  0  0  0  0  0  0  0  0  0
   -7.6127    2.0951   -3.9488 C   0  0  0  0  0  0  0  0  0  0  0  0
   -4.7864    2.0538   -3.0237 C   0  0  0  0  0  0  0  0  0  0  0  0
   -3.3072    1.4277   -2.5136 S   0  0  0  0  0  0  0  0  0  0  0  0
   -3.9667    0.7933   -1.0393 C   0  0  0  0  0  0  0  0  0  0  0  0
   -1.1559   -1.0663    0.6335 C   0  0  0  0  0  0  0  0  0  0  0  0
    0.1843   -1.2450    0.7398 N   0  0  0  0  0  0  0  0  0  0  0  0
    3.0277    0.3371   -0.0646 H   0  0  0  0  0  0  0  0  0  0  0  0
    2.7536   -1.4133   -0.0223 H   0  0  0  0  0  0  0  0  0  0  0  0
    2.7344   -0.4676    1.4891 H   0  0  0  0  0  0  0  0  0  0  0  0
    1.1355    1.6970   -0.6176 H   0  0  0  0  0  0  0  0  0  0  0  0
   -1.2812    2.0218   -0.7045 H   0  0  0  0  0  0  0  0  0  0  0  0
   -3.6443   -0.7590    1.9356 H   0  0  0  0  0  0  0  0  0  0  0  0
   -7.6852   -0.4042    0.9385 H   0  0  0  0  0  0  0  0  0  0  0  0
   -7.9632    0.0991   -0.6783 H   0  0  0  0  0  0  0  0  0  0  0  0
   -7.8459    2.5314   -0.5862 H   0  0  0  0  0  0  0  0  0  0  0  0
  -10.1415    2.8870   -1.1569 H   0  0  0  0  0  0  0  0  0  0  0  0
  -11.4174    3.0255   -4.6615 H   0  0  0  0  0  0  0  0  0  0  0  0
  -13.6104    2.8527   -3.8580 H   0  0  0  0  0  0  0  0  0  0  0  0
  -13.2370    6.1597   -2.2364 H   0  0  0  0  0  0  0  0  0  0  0  0
  -15.0417    7.2772   -0.9991 H   0  0  0  0  0  0  0  0  0  0  0  0
  -17.2514    6.1464   -0.7360 H   0  0  0  0  0  0  0  0  0  0  0  0
  -15.8501    2.8011   -3.0090 H   0  0  0  0  0  0  0  0  0  0  0  0
   -9.2007    2.4573   -5.3521 H   0  0  0  0  0  0  0  0  0  0  0  0
   -6.9169    1.8484   -4.7479 H   0  0  0  0  0  0  0  0  0  0  0  0
   -4.8149    2.6549   -3.9227 H   0  0  0  0  0  0  0  0  0  0  0  0
   -1.7348   -1.9078    1.0089 H   0  0  0  0  0  0  0  0  0  0  0  0
  1  2  1  0  0  0  0
  1 35  1  0  0  0  0
  1 36  1  0  0  0  0
  1 37  1  0  0  0  0
  2  3  1  0  0  0  0
  2 34  2  0  0  0  0
  3  4  2  0  0  0  0
  3 38  1  0  0  0  0
  4  5  1  0  0  0  0
  4 39  1  0  0  0  0
  5  6  1  0  0  0  0
  5 33  2  0  0  0  0
  6  7  1  0  0  0  0
  6 32  2  0  0  0  0
  7  8  2  0  0  0  0
  7 40  1  0  0  0  0
  8  9  1  0  0  0  0
  9 10  1  0  0  0  0
  9 11  2  0  0  0  0
 10 41  1  0  0  0  0
 10 42  1  0  0  0  0
 11 12  1  0  0  0  0
 11 32  1  0  0  0  0
 12 13  1  0  0  0  0
 12 30  2  0  0  0  0
 13 14  1  0  0  0  0
 13 29  2  0  0  0  0
 14 15  2  0  0  0  0
 14 43  1  0  0  0  0
 15 16  1  0  0  0  0
 15 44  1  0  0  0  0
 16 17  1  0  0  0  0
 16 28  2  0  0  0  0
 17 18  1  0  0  0  0
 17 45  1  0  0  0  0
 18 19  2  0  0  0  0
 18 20  1  0  0  0  0
 20 21  1  0  0  0  0
 20 46  1  0  0  0  0
 21 22  1  0  0  0  0
 21 27  2  0  0  0  0
 22 23  2  0  0  0  0
 22 47  1  0  0  0  0
 23 24  1  0  0  0  0
 23 48  1  0  0  0  0
 24 25  2  0  0  0  0
 24 49  1  0  0  0  0
 25 26  1  0  0  0  0
 25 27  1  0  0  0  0
 27 50  1  0  0  0  0
 28 29  1  0  0  0  0
 28 51  1  0  0  0  0
 29 52  1  0  0  0  0
 30 31  1  0  0  0  0
 30 53  1  0  0  0  0
 31 32  1  0  0  0  0
 33 34  1  0  0  0  0
 33 54  1  0  0  0  0
M  END
$$$$
