CHEMBL203119
 OpenBabel04072215363D

 52 55  0  0  0  0  0  0  0  0999 V2000
   -0.1179   -0.8922    1.0191 C   0  0  0  0  0  0  0  0  0  0  0  0
   -0.5045    0.5130    1.4803 C   0  0  0  0  0  0  0  0  0  0  0  0
   -1.8456    0.5037    2.2197 C   0  0  0  0  0  0  0  0  0  0  0  0
    0.5860    1.1381    2.3300 C   0  0  0  0  0  0  0  0  0  0  0  0
    1.2292    2.2994    1.8893 C   0  0  0  0  0  0  0  0  0  0  0  0
    2.1855    2.9265    2.6900 C   0  0  0  0  0  0  0  0  0  0  0  0
    2.5125    2.4189    3.9550 C   0  0  0  0  0  0  0  0  0  0  0  0
    3.4404    3.0534    4.8085 N   0  0  0  0  0  0  0  0  0  0  0  0
    3.5931    4.3917    4.8577 C   0  0  0  0  0  0  0  0  0  0  0  0
    4.6744    5.1081    5.0700 N   0  0  0  0  0  0  0  0  0  0  0  0
    4.2972    6.4299    4.9324 N   0  0  0  0  0  0  0  0  0  0  0  0
    3.0013    6.4350    4.6833 C   0  0  0  0  0  0  0  0  0  0  0  0
    2.2275    7.5924    4.3936 C   0  0  0  0  0  0  0  0  0  0  0  0
    0.8673    7.8106    4.4898 C   0  0  0  0  0  0  0  0  0  0  0  0
   -0.0544    6.9570    4.9726 N   0  0  0  0  0  0  0  0  0  0  0  0
   -1.4393    7.0545    4.5477 C   0  0  0  0  0  0  0  0  0  0  0  0
   -2.3520    6.5314    5.6293 C   0  0  0  0  0  0  0  0  0  0  0  0
   -2.3953    7.1521    6.8818 C   0  0  0  0  0  0  0  0  0  0  0  0
   -3.2715    6.6667    7.8393 C   0  0  0  0  0  0  0  0  0  0  0  0
   -4.1016    5.6211    7.6364 N   0  0  0  0  0  0  0  0  0  0  0  0
   -4.0476    5.0352    6.4216 C   0  0  0  0  0  0  0  0  0  0  0  0
   -3.2033    5.4452    5.3999 C   0  0  0  0  0  0  0  0  0  0  0  0
    0.5317    9.0575    4.0485 N   0  0  0  0  0  0  0  0  0  0  0  0
    1.6669    9.6155    3.6927 C   0  0  0  0  0  0  0  0  0  0  0  0
    2.7204    8.7624    3.8673 N   0  0  0  0  0  0  0  0  0  0  0  0
    4.0826    9.0386    3.4782 C   0  0  0  0  0  0  0  0  0  0  0  0
    2.4855    5.1672    4.6573 O   0  0  0  0  0  0  0  0  0  0  0  0
    1.9247    1.2200    4.3631 C   0  0  0  0  0  0  0  0  0  0  0  0
    0.9618    0.5932    3.5669 C   0  0  0  0  0  0  0  0  0  0  0  0
   -0.9055   -1.3229    0.3919 H   0  0  0  0  0  0  0  0  0  0  0  0
    0.0460   -1.5707    1.8630 H   0  0  0  0  0  0  0  0  0  0  0  0
    0.8048   -0.8657    0.4287 H   0  0  0  0  0  0  0  0  0  0  0  0
   -0.6416    1.1237    0.5777 H   0  0  0  0  0  0  0  0  0  0  0  0
   -1.8174   -0.1286    3.1143 H   0  0  0  0  0  0  0  0  0  0  0  0
   -2.6412    0.1231    1.5705 H   0  0  0  0  0  0  0  0  0  0  0  0
   -2.1252    1.5157    2.5346 H   0  0  0  0  0  0  0  0  0  0  0  0
    0.9843    2.7374    0.9242 H   0  0  0  0  0  0  0  0  0  0  0  0
    2.6652    3.8261    2.3119 H   0  0  0  0  0  0  0  0  0  0  0  0
    4.2977    2.5188    4.8978 H   0  0  0  0  0  0  0  0  0  0  0  0
    0.2228    6.0098    5.2128 H   0  0  0  0  0  0  0  0  0  0  0  0
   -1.5647    6.4682    3.6298 H   0  0  0  0  0  0  0  0  0  0  0  0
   -1.7447    8.0832    4.3159 H   0  0  0  0  0  0  0  0  0  0  0  0
   -1.7557    8.0015    7.1033 H   0  0  0  0  0  0  0  0  0  0  0  0
   -3.3333    7.1236    8.8229 H   0  0  0  0  0  0  0  0  0  0  0  0
   -4.7285    4.2004    6.2824 H   0  0  0  0  0  0  0  0  0  0  0  0
   -3.2198    4.9293    4.4461 H   0  0  0  0  0  0  0  0  0  0  0  0
    1.7778   10.6177    3.2995 H   0  0  0  0  0  0  0  0  0  0  0  0
    4.1496   10.0524    3.0759 H   0  0  0  0  0  0  0  0  0  0  0  0
    4.3754    8.3201    2.7063 H   0  0  0  0  0  0  0  0  0  0  0  0
    4.7258    8.9518    4.3562 H   0  0  0  0  0  0  0  0  0  0  0  0
    2.1751    0.7897    5.3297 H   0  0  0  0  0  0  0  0  0  0  0  0
    0.4925   -0.3165    3.9344 H   0  0  0  0  0  0  0  0  0  0  0  0
  1  2  1  0  0  0  0
  1 30  1  0  0  0  0
  1 31  1  0  0  0  0
  1 32  1  0  0  0  0
  2  3  1  0  0  0  0
  2  4  1  0  0  0  0
  2 33  1  0  0  0  0
  3 34  1  0  0  0  0
  3 35  1  0  0  0  0
  3 36  1  0  0  0  0
  4  5  1  0  0  0  0
  4 29  2  0  0  0  0
  5  6  2  0  0  0  0
  5 37  1  0  0  0  0
  6  7  1  0  0  0  0
  6 38  1  0  0  0  0
  7  8  1  0  0  0  0
  7 28  2  0  0  0  0
  8  9  1  0  0  0  0
  8 39  1  0  0  0  0
  9 10  2  0  0  0  0
  9 27  1  0  0  0  0
 10 11  1  0  0  0  0
 11 12  2  0  0  0  0
 12 13  1  0  0  0  0
 12 27  1  0  0  0  0
 13 14  2  0  0  0  0
 13 25  1  0  0  0  0
 14 15  1  0  0  0  0
 14 23  1  0  0  0  0
 15 16  1  0  0  0  0
 15 40  1  0  0  0  0
 16 17  1  0  0  0  0
 16 41  1  0  0  0  0
 16 42  1  0  0  0  0
 17 18  1  0  0  0  0
 17 22  2  0  0  0  0
 18 19  2  0  0  0  0
 18 43  1  0  0  0  0
 19 20  1  0  0  0  0
 19 44  1  0  0  0  0
 20 21  2  0  0  0  0
 21 22  1  0  0  0  0
 21 45  1  0  0  0  0
 22 46  1  0  0  0  0
 23 24  2  0  0  0  0
 24 25  1  0  0  0  0
 24 47  1  0  0  0  0
 25 26  1  0  0  0  0
 26 48  1  0  0  0  0
 26 49  1  0  0  0  0
 26 50  1  0  0  0  0
 28 29  1  0  0  0  0
 28 51  1  0  0  0  0
 29 52  1  0  0  0  0
M  END
$$$$
