CHEMBL3937048
 OpenBabel04072215373D

 49 53  0  0  1  0  0  0  0  0999 V2000
   -3.8157   -1.8218    3.9288 C   0  0  0  0  0  0  0  0  0  0  0  0
   -2.7125   -1.9180    3.0309 O   0  0  0  0  0  0  0  0  0  0  0  0
   -1.5863   -2.5044    3.5517 C   0  0  0  0  0  0  0  0  0  0  0  0
   -1.6364   -3.5080    4.5195 C   0  0  0  0  0  0  0  0  0  0  0  0
   -0.4533   -4.0776    5.0366 C   0  0  0  0  0  0  0  0  0  0  0  0
   -0.4156   -5.1334    5.9609 C   0  0  0  0  0  0  0  0  0  0  0  0
   -1.6185   -5.7788    6.3498 N   0  0  0  0  0  0  0  0  0  0  0  0
   -1.6722   -7.0752    6.9144 C   0  0  0  0  0  0  0  0  0  0  0  0
   -0.8897   -8.1171    6.3930 C   0  0  0  0  0  0  0  0  0  0  0  0
   -0.8745   -9.3750    6.9955 C   0  0  0  0  0  0  0  0  0  0  0  0
   -1.6564   -9.6132    8.1228 C   0  0  0  0  0  0  0  0  0  0  0  0
   -2.4759   -8.6004    8.6245 C   0  0  0  0  0  0  0  0  0  0  0  0
   -3.4399   -8.9126   10.0167 Cl  0  0  0  0  0  0  0  0  0  0  0  0
   -2.4938   -7.3463    8.0134 C   0  0  0  0  0  0  0  0  0  0  0  0
   -3.2811   -6.3660    8.4902 F   0  0  0  0  0  0  0  0  0  0  0  0
    0.7469   -5.6020    6.4524 N   0  0  0  0  0  0  0  0  0  0  0  0
    1.8679   -5.0349    6.0041 C   0  0  0  0  0  0  0  0  0  0  0  0
    1.9442   -4.0746    5.0764 N   0  0  0  0  0  0  0  0  0  0  0  0
    0.7921   -3.6114    4.5940 C   0  0  0  0  0  0  0  0  0  0  0  0
    0.8207   -2.6501    3.5886 C   0  0  0  0  0  0  0  0  0  0  0  0
   -0.3440   -2.1081    3.0350 C   0  0  0  0  0  0  0  0  0  0  0  0
   -0.3598   -1.1678    2.0373 O   0  0  0  0  0  0  0  0  0  0  0  0
    0.7443   -1.1162    1.1234 C   0  0  1  0  0  0  0  0  0  0  0  0
    0.2346   -0.6082   -0.2312 C   0  0  0  0  0  0  0  0  0  0  0  0
    1.0097    0.5361   -0.6286 O   0  0  0  0  0  0  0  0  0  0  0  0
    2.1336    0.6343    0.2437 C   0  0  2  0  0  0  0  0  0  0  0  0
    3.3282   -0.1619   -0.2432 C   0  0  1  0  0  0  0  0  0  0  0  0
    4.1853    0.6366   -0.9266 F   0  0  0  0  0  0  0  0  0  0  0  0
    3.9651   -0.6435    1.0415 C   0  0  0  0  0  0  0  0  0  0  0  0
    2.9622   -0.6268    2.0702 O   0  0  0  0  0  0  0  0  0  0  0  0
    1.7598   -0.0531    1.5343 C   0  0  2  0  0  0  0  0  0  0  0  0
   -4.5719   -1.1773    3.4744 H   0  0  0  0  0  0  0  0  0  0  0  0
   -3.5156   -1.3698    4.8830 H   0  0  0  0  0  0  0  0  0  0  0  0
   -4.2796   -2.8008    4.0938 H   0  0  0  0  0  0  0  0  0  0  0  0
   -2.5914   -3.8800    4.8719 H   0  0  0  0  0  0  0  0  0  0  0  0
   -2.2545   -5.1294    6.8076 H   0  0  0  0  0  0  0  0  0  0  0  0
   -0.2669   -7.9420    5.5175 H   0  0  0  0  0  0  0  0  0  0  0  0
   -0.2366  -10.1578    6.5898 H   0  0  0  0  0  0  0  0  0  0  0  0
   -1.6206  -10.5865    8.6045 H   0  0  0  0  0  0  0  0  0  0  0  0
    2.7989   -5.3937    6.4250 H   0  0  0  0  0  0  0  0  0  0  0  0
    1.8016   -2.3322    3.2521 H   0  0  0  0  0  0  0  0  0  0  0  0
    1.1871   -2.1111    0.9833 H   0  0  0  0  0  0  0  0  0  0  0  0
   -0.8236   -0.3309   -0.2267 H   0  0  0  0  0  0  0  0  0  0  0  0
    0.3797   -1.3714   -1.0042 H   0  0  0  0  0  0  0  0  0  0  0  0
    2.4005    1.6863    0.3870 H   0  0  0  0  0  0  0  0  0  0  0  0
    3.0435   -0.9922   -0.8972 H   0  0  0  0  0  0  0  0  0  0  0  0
    4.7907    0.0037    1.3532 H   0  0  0  0  0  0  0  0  0  0  0  0
    4.3505   -1.6629    0.9438 H   0  0  0  0  0  0  0  0  0  0  0  0
    1.3358    0.6382    2.2699 H   0  0  0  0  0  0  0  0  0  0  0  0
  1  2  1  0  0  0  0
  1 32  1  0  0  0  0
  1 33  1  0  0  0  0
  1 34  1  0  0  0  0
  2  3  1  0  0  0  0
  3  4  1  0  0  0  0
  3 21  2  0  0  0  0
  4  5  2  0  0  0  0
  4 35  1  0  0  0  0
  5  6  1  0  0  0  0
  5 19  1  0  0  0  0
  6  7  1  0  0  0  0
  6 16  2  0  0  0  0
  7  8  1  0  0  0  0
  7 36  1  0  0  0  0
  8  9  1  0  0  0  0
  8 14  2  0  0  0  0
  9 10  2  0  0  0  0
  9 37  1  0  0  0  0
 10 11  1  0  0  0  0
 10 38  1  0  0  0  0
 11 12  2  0  0  0  0
 11 39  1  0  0  0  0
 12 13  1  0  0  0  0
 12 14  1  0  0  0  0
 14 15  1  0  0  0  0
 16 17  1  0  0  0  0
 17 18  2  0  0  0  0
 17 40  1  0  0  0  0
 18 19  1  0  0  0  0
 19 20  2  0  0  0  0
 20 21  1  0  0  0  0
 20 41  1  0  0  0  0
 21 22  1  0  0  0  0
 23 24  1  0  0  0  0
 23 31  1  0  0  0  0
 23 22  1  0  0  0  0
 23 42  1  6  0  0  0
 24 25  1  0  0  0  0
 24 43  1  0  0  0  0
 24 44  1  0  0  0  0
 25 26  1  0  0  0  0
 26 27  1  0  0  0  0
 26 31  1  0  0  0  0
 26 45  1  1  0  0  0
 27 28  1  0  0  0  0
 27 29  1  0  0  0  0
 27 46  1  6  0  0  0
 29 30  1  0  0  0  0
 29 47  1  0  0  0  0
 29 48  1  0  0  0  0
 30 31  1  0  0  0  0
 31 49  1  1  0  0  0
M  END
$$$$
