CHEMBL456683
 OpenBabel04072215383D

 55 60  0  0  0  0  0  0  0  0999 V2000
    3.3978   10.4433   -4.7860 C   0  0  0  0  0  0  0  0  0  0  0  0
    3.0261   10.4755   -3.3924 N   0  0  0  0  0  0  0  0  0  0  0  0
    3.3628    9.3789   -2.6141 C   0  0  0  0  0  0  0  0  0  0  0  0
    3.5720    9.6550   -1.3244 N   0  0  0  0  0  0  0  0  0  0  0  0
    3.9203    8.6276   -0.5331 C   0  0  0  0  0  0  0  0  0  0  0  0
    4.0873    7.3410   -0.9803 C   0  0  0  0  0  0  0  0  0  0  0  0
    3.8625    7.1287   -2.3230 C   0  0  0  0  0  0  0  0  0  0  0  0
    4.0656    5.8313   -3.0096 C   0  0  0  0  0  0  0  0  0  0  0  0
    4.4670    5.8470   -4.3660 C   0  0  0  0  0  0  0  0  0  0  0  0
    4.6860    4.6755   -5.0843 C   0  0  0  0  0  0  0  0  0  0  0  0
    4.4589    3.4812   -4.4432 C   0  0  0  0  0  0  0  0  0  0  0  0
    4.0619    3.3994   -3.1611 N   0  0  0  0  0  0  0  0  0  0  0  0
    3.9182    4.5528   -2.4463 C   0  0  0  0  0  0  0  0  0  0  0  0
    3.6185    4.4182   -1.0843 O   0  0  0  0  0  0  0  0  0  0  0  0
    3.9660    3.2205   -0.4633 C   0  0  0  0  0  0  0  0  0  0  0  0
    5.1904    2.6104   -0.7327 C   0  0  0  0  0  0  0  0  0  0  0  0
    5.4573    1.3310   -0.2613 C   0  0  0  0  0  0  0  0  0  0  0  0
    4.5310    0.6331    0.5230 C   0  0  0  0  0  0  0  0  0  0  0  0
    4.7228   -0.7481    0.8291 N   0  0  0  0  0  0  0  0  0  0  0  0
    5.4437   -1.6384    0.0864 C   0  0  0  0  0  0  0  0  0  0  0  0
    6.4701   -1.3840   -0.6926 N   0  0  0  0  0  0  0  0  0  0  0  0
    6.9257   -2.5268   -1.3198 C   0  0  0  0  0  0  0  0  0  0  0  0
    8.0061   -2.5968   -2.2232 C   0  0  0  0  0  0  0  0  0  0  0  0
    8.3721   -3.8273   -2.7772 C   0  0  0  0  0  0  0  0  0  0  0  0
    7.6676   -4.9812   -2.4500 C   0  0  0  0  0  0  0  0  0  0  0  0
    6.5848   -4.9349   -1.5641 C   0  0  0  0  0  0  0  0  0  0  0  0
    6.2346   -3.6939   -1.0037 C   0  0  0  0  0  0  0  0  0  0  0  0
    4.9893   -3.3095    0.1207 S   0  0  0  0  0  0  0  0  0  0  0  0
    3.3974    1.3518    1.0246 C   0  0  0  0  0  0  0  0  0  0  0  0
    2.5353    0.8369    2.0286 C   0  0  0  0  0  0  0  0  0  0  0  0
    1.4243    1.5455    2.4907 C   0  0  0  0  0  0  0  0  0  0  0  0
    1.1277    2.7867    1.9507 C   0  0  0  0  0  0  0  0  0  0  0  0
    1.9516    3.3272    0.9623 C   0  0  0  0  0  0  0  0  0  0  0  0
    3.1002    2.6485    0.4976 C   0  0  0  0  0  0  0  0  0  0  0  0
    3.4986    8.1565   -3.1402 N   0  0  0  0  0  0  0  0  0  0  0  0
    3.5983   11.4659   -5.1285 H   0  0  0  0  0  0  0  0  0  0  0  0
    2.5700   10.0555   -5.3900 H   0  0  0  0  0  0  0  0  0  0  0  0
    4.2967    9.8528   -4.9855 H   0  0  0  0  0  0  0  0  0  0  0  0
    3.3081   11.2966   -2.8693 H   0  0  0  0  0  0  0  0  0  0  0  0
    4.0806    8.8832    0.5095 H   0  0  0  0  0  0  0  0  0  0  0  0
    4.4112    6.5664   -0.2986 H   0  0  0  0  0  0  0  0  0  0  0  0
    4.6279    6.7982   -4.8726 H   0  0  0  0  0  0  0  0  0  0  0  0
    5.0182    4.7036   -6.1154 H   0  0  0  0  0  0  0  0  0  0  0  0
    4.6059    2.5303   -4.9462 H   0  0  0  0  0  0  0  0  0  0  0  0
    5.9216    3.0810   -1.3835 H   0  0  0  0  0  0  0  0  0  0  0  0
    6.3954    0.8787   -0.5652 H   0  0  0  0  0  0  0  0  0  0  0  0
    3.9039   -1.1610    1.2535 H   0  0  0  0  0  0  0  0  0  0  0  0
    8.5491   -1.6915   -2.4762 H   0  0  0  0  0  0  0  0  0  0  0  0
    9.2132   -3.8780   -3.4649 H   0  0  0  0  0  0  0  0  0  0  0  0
    7.9638   -5.9332   -2.8868 H   0  0  0  0  0  0  0  0  0  0  0  0
    6.0361   -5.8375   -1.3132 H   0  0  0  0  0  0  0  0  0  0  0  0
    2.7406   -0.1152    2.5097 H   0  0  0  0  0  0  0  0  0  0  0  0
    0.7997    1.1267    3.2762 H   0  0  0  0  0  0  0  0  0  0  0  0
    0.2638    3.3425    2.3056 H   0  0  0  0  0  0  0  0  0  0  0  0
    1.7007    4.3104    0.5681 H   0  0  0  0  0  0  0  0  0  0  0  0
  1  2  1  0  0  0  0
  1 36  1  0  0  0  0
  1 37  1  0  0  0  0
  1 38  1  0  0  0  0
  2  3  1  0  0  0  0
  2 39  1  0  0  0  0
  3  4  1  0  0  0  0
  3 35  2  0  0  0  0
  4  5  2  0  0  0  0
  5  6  1  0  0  0  0
  5 40  1  0  0  0  0
  6  7  2  0  0  0  0
  6 41  1  0  0  0  0
  7  8  1  0  0  0  0
  7 35  1  0  0  0  0
  8  9  1  0  0  0  0
  8 13  2  0  0  0  0
  9 10  2  0  0  0  0
  9 42  1  0  0  0  0
 10 11  1  0  0  0  0
 10 43  1  0  0  0  0
 11 12  2  0  0  0  0
 11 44  1  0  0  0  0
 12 13  1  0  0  0  0
 13 14  1  0  0  0  0
 14 15  1  0  0  0  0
 15 16  1  0  0  0  0
 15 34  2  0  0  0  0
 16 17  2  0  0  0  0
 16 45  1  0  0  0  0
 17 18  1  0  0  0  0
 17 46  1  0  0  0  0
 18 19  1  0  0  0  0
 18 29  2  0  0  0  0
 19 20  1  0  0  0  0
 19 47  1  0  0  0  0
 20 21  2  0  0  0  0
 20 28  1  0  0  0  0
 21 22  1  0  0  0  0
 22 23  1  0  0  0  0
 22 27  2  0  0  0  0
 23 24  2  0  0  0  0
 23 48  1  0  0  0  0
 24 25  1  0  0  0  0
 24 49  1  0  0  0  0
 25 26  2  0  0  0  0
 25 50  1  0  0  0  0
 26 27  1  0  0  0  0
 26 51  1  0  0  0  0
 27 28  1  0  0  0  0
 29 30  1  0  0  0  0
 29 34  1  0  0  0  0
 30 31  2  0  0  0  0
 30 52  1  0  0  0  0
 31 32  1  0  0  0  0
 31 53  1  0  0  0  0
 32 33  2  0  0  0  0
 32 54  1  0  0  0  0
 33 34  1  0  0  0  0
 33 55  1  0  0  0  0
M  END
$$$$
