CHEMBL3582442
 OpenBabel04072215363D

 61 66  0  0  1  0  0  0  0  0999 V2000
   -0.1935   -3.4169    1.9612 O   0  0  0  0  0  0  0  0  0  0  0  0
    0.7878   -3.7028    0.9636 C   0  0  3  0  0  0  0  0  0  0  0  0
    0.5999   -2.8021   -0.2558 C   0  0  0  0  0  0  0  0  0  0  0  0
    0.9261   -1.3456    0.0636 C   0  0  0  0  0  0  0  0  0  0  0  0
    2.2240   -1.2258    0.7151 N   0  0  0  0  0  0  0  0  0  0  0  0
    3.2831   -0.6383    0.0477 C   0  0  0  0  0  0  0  0  0  0  0  0
    4.3075   -0.0252    0.7709 C   0  0  0  0  0  0  0  0  0  0  0  0
    5.3776    0.5997    0.1275 C   0  0  0  0  0  0  0  0  0  0  0  0
    6.4135    1.3111    0.8856 C   0  0  0  0  0  0  0  0  0  0  0  0
    7.1350    2.4422    0.5333 C   0  0  0  0  0  0  0  0  0  0  0  0
    7.9329    2.8884    1.5493 N   0  0  0  0  0  0  0  0  0  0  0  0
    7.7208    2.0442    2.5320 C   0  0  0  0  0  0  0  0  0  0  0  0
    8.2202    2.0422    3.8462 C   0  0  0  0  0  0  0  0  0  0  0  0
    7.8608    1.0612    4.6749 C   0  0  0  0  0  0  0  0  0  0  0  0
    6.9895   -0.0463    4.1617 C   0  0  0  0  0  0  0  0  0  0  0  0
    6.7385   -1.0857    5.0291 N   0  0  0  0  0  0  0  0  0  0  0  0
    6.1408   -0.9308    6.3432 C   0  0  0  0  0  0  0  0  0  0  0  0
    6.7628   -2.0729    7.1260 C   0  0  0  0  0  0  0  0  0  0  0  0
    6.7942   -3.2025    6.1002 C   0  0  0  0  0  0  0  0  0  0  0  0
    6.9900   -2.4975    4.7352 C   0  0  2  0  0  0  0  0  0  0  0  0
    8.3754   -2.7376    4.1613 C   0  0  0  0  0  0  0  0  0  0  0  0
    8.5078   -3.4199    2.9392 C   0  0  0  0  0  0  0  0  0  0  0  0
    9.7676   -3.6774    2.3888 C   0  0  0  0  0  0  0  0  0  0  0  0
   10.9162   -3.2526    3.0511 C   0  0  0  0  0  0  0  0  0  0  0  0
   10.7947   -2.5737    4.2566 C   0  0  0  0  0  0  0  0  0  0  0  0
   11.8983   -2.1627    4.8956 F   0  0  0  0  0  0  0  0  0  0  0  0
    9.5433   -2.3164    4.8169 C   0  0  0  0  0  0  0  0  0  0  0  0
    6.5052   -0.0649    2.9476 N   0  0  0  0  0  0  0  0  0  0  0  0
    6.8557    1.0205    2.1735 N   0  0  0  0  0  0  0  0  0  0  0  0
    5.3777    0.6034   -1.2642 C   0  0  0  0  0  0  0  0  0  0  0  0
    4.3260   -0.0091   -1.9234 C   0  0  0  0  0  0  0  0  0  0  0  0
    3.2905   -0.6157   -1.3025 N   0  0  0  0  0  0  0  0  0  0  0  0
    2.4625   -2.0603    1.8901 C   0  0  0  0  0  0  0  0  0  0  0  0
    2.1758   -3.5254    1.5680 C   0  0  0  0  0  0  0  0  0  0  0  0
   -1.0679   -3.5895    1.5718 H   0  0  0  0  0  0  0  0  0  0  0  0
    0.6511   -4.7505    0.6739 H   0  0  0  0  0  0  0  0  0  0  0  0
   -0.4359   -2.8613   -0.6102 H   0  0  0  0  0  0  0  0  0  0  0  0
    1.2493   -3.1523   -1.0669 H   0  0  0  0  0  0  0  0  0  0  0  0
    0.1659   -0.9467    0.7457 H   0  0  0  0  0  0  0  0  0  0  0  0
    0.8488   -0.7399   -0.8482 H   0  0  0  0  0  0  0  0  0  0  0  0
    4.2315    0.0198    1.8520 H   0  0  0  0  0  0  0  0  0  0  0  0
    7.0862    2.9867   -0.4010 H   0  0  0  0  0  0  0  0  0  0  0  0
    8.8820    2.8392    4.1591 H   0  0  0  0  0  0  0  0  0  0  0  0
    8.2298    1.0013    5.6896 H   0  0  0  0  0  0  0  0  0  0  0  0
    5.0539   -1.0596    6.2690 H   0  0  0  0  0  0  0  0  0  0  0  0
    6.3415    0.0380    6.8087 H   0  0  0  0  0  0  0  0  0  0  0  0
    6.1959   -2.3288    8.0251 H   0  0  0  0  0  0  0  0  0  0  0  0
    7.7817   -1.8054    7.4304 H   0  0  0  0  0  0  0  0  0  0  0  0
    5.8267   -3.7189    6.1081 H   0  0  0  0  0  0  0  0  0  0  0  0
    7.5633   -3.9453    6.3379 H   0  0  0  0  0  0  0  0  0  0  0  0
    6.2288   -2.8666    4.0369 H   0  0  0  0  0  0  0  0  0  0  0  0
    7.6230   -3.7522    2.3992 H   0  0  0  0  0  0  0  0  0  0  0  0
    9.8481   -4.2063    1.4422 H   0  0  0  0  0  0  0  0  0  0  0  0
   11.9007   -3.4415    2.6353 H   0  0  0  0  0  0  0  0  0  0  0  0
    9.5007   -1.7770    5.7560 H   0  0  0  0  0  0  0  0  0  0  0  0
    6.1638    1.0801   -1.8382 H   0  0  0  0  0  0  0  0  0  0  0  0
    4.2801   -0.0213   -3.0086 H   0  0  0  0  0  0  0  0  0  0  0  0
    1.8185   -1.7152    2.7067 H   0  0  0  0  0  0  0  0  0  0  0  0
    3.4926   -1.9979    2.2591 H   0  0  0  0  0  0  0  0  0  0  0  0
    2.2641   -4.1114    2.4903 H   0  0  0  0  0  0  0  0  0  0  0  0
    2.9282   -3.9000    0.8628 H   0  0  0  0  0  0  0  0  0  0  0  0
  1  2  1  0  0  0  0
  1 35  1  0  0  0  0
  2  3  1  0  0  0  0
  2 34  1  0  0  0  0
  2 36  1  0  0  0  0
  3  4  1  0  0  0  0
  3 37  1  0  0  0  0
  3 38  1  0  0  0  0
  4  5  1  0  0  0  0
  4 39  1  0  0  0  0
  4 40  1  0  0  0  0
  5  6  1  0  0  0  0
  5 33  1  0  0  0  0
  6  7  1  0  0  0  0
  6 32  2  0  0  0  0
  7  8  2  0  0  0  0
  7 41  1  0  0  0  0
  8  9  1  0  0  0  0
  8 30  1  0  0  0  0
  9 10  2  0  0  0  0
  9 29  1  0  0  0  0
 10 11  1  0  0  0  0
 10 42  1  0  0  0  0
 11 12  2  0  0  0  0
 12 13  1  0  0  0  0
 12 29  1  0  0  0  0
 13 14  2  0  0  0  0
 13 43  1  0  0  0  0
 14 15  1  0  0  0  0
 14 44  1  0  0  0  0
 15 16  1  0  0  0  0
 15 28  2  0  0  0  0
 16 17  1  0  0  0  0
 16 20  1  0  0  0  0
 17 18  1  0  0  0  0
 17 45  1  0  0  0  0
 17 46  1  0  0  0  0
 18 19  1  0  0  0  0
 18 47  1  0  0  0  0
 18 48  1  0  0  0  0
 19 20  1  0  0  0  0
 19 49  1  0  0  0  0
 19 50  1  0  0  0  0
 20 21  1  0  0  0  0
 20 51  1  6  0  0  0
 21 22  1  0  0  0  0
 21 27  2  0  0  0  0
 22 23  2  0  0  0  0
 22 52  1  0  0  0  0
 23 24  1  0  0  0  0
 23 53  1  0  0  0  0
 24 25  2  0  0  0  0
 24 54  1  0  0  0  0
 25 26  1  0  0  0  0
 25 27  1  0  0  0  0
 27 55  1  0  0  0  0
 28 29  1  0  0  0  0
 30 31  2  0  0  0  0
 30 56  1  0  0  0  0
 31 32  1  0  0  0  0
 31 57  1  0  0  0  0
 33 34  1  0  0  0  0
 33 58  1  0  0  0  0
 33 59  1  0  0  0  0
 34 60  1  0  0  0  0
 34 61  1  0  0  0  0
M  END
$$$$
