CHEMBL1681952
 OpenBabel04072215363D

 46 48  0  0  0  0  0  0  0  0999 V2000
    9.4926    4.1050    6.6583 C   0  0  0  0  0  0  0  0  0  0  0  0
    8.9033    4.1255    5.3606 O   0  0  0  0  0  0  0  0  0  0  0  0
    7.8519    3.2028    5.3544 N   0  0  0  0  0  0  0  0  0  0  0  0
    7.2544    3.2143    4.2022 C   0  0  0  0  0  0  0  0  0  0  0  0
    6.0935    2.3452    3.9540 C   0  0  0  0  0  0  0  0  0  0  0  0
    5.2782    1.8975    4.9893 C   0  0  0  0  0  0  0  0  0  0  0  0
    5.4238    2.3275    6.3073 N   0  0  0  0  0  0  0  0  0  0  0  0
    4.2104    1.1090    4.7848 N   0  0  0  0  0  0  0  0  0  0  0  0
    3.9738    0.7380    3.5239 C   0  0  0  0  0  0  0  0  0  0  0  0
    4.7105    1.0741    2.4627 N   0  0  0  0  0  0  0  0  0  0  0  0
    5.7522    1.9072    2.6890 C   0  0  0  0  0  0  0  0  0  0  0  0
    6.5221    2.2985    1.5870 O   0  0  0  0  0  0  0  0  0  0  0  0
    5.9110    2.2230    0.3524 C   0  0  0  0  0  0  0  0  0  0  0  0
    4.6379    2.7533    0.1466 C   0  0  0  0  0  0  0  0  0  0  0  0
    3.9860    2.5732   -1.0703 C   0  0  0  0  0  0  0  0  0  0  0  0
    4.5919    1.8877   -2.1291 C   0  0  0  0  0  0  0  0  0  0  0  0
    3.8763    1.5984   -3.3314 N   0  0  0  0  0  0  0  0  0  0  0  0
    2.4949    1.6419   -3.4408 C   0  0  0  0  0  0  0  0  0  0  0  0
    1.7414    1.9492   -2.5218 O   0  0  0  0  0  0  0  0  0  0  0  0
    2.0180    1.2424   -4.6818 N   0  0  0  0  0  0  0  0  0  0  0  0
    0.6091    1.1998   -4.8561 C   0  0  0  0  0  0  0  0  0  0  0  0
   -0.1941    2.2908   -4.4894 C   0  0  0  0  0  0  0  0  0  0  0  0
   -1.5826    2.1706   -4.4650 C   0  0  0  0  0  0  0  0  0  0  0  0
   -2.1619    0.9611   -4.8202 C   0  0  0  0  0  0  0  0  0  0  0  0
   -3.4907    0.8175   -4.7356 F   0  0  0  0  0  0  0  0  0  0  0  0
   -1.3807   -0.1108   -5.2446 C   0  0  0  0  0  0  0  0  0  0  0  0
    0.0117    0.0146   -5.2913 C   0  0  0  0  0  0  0  0  0  0  0  0
    5.9205    1.4678   -1.9572 C   0  0  0  0  0  0  0  0  0  0  0  0
    6.7775    0.6888   -3.2434 Cl  0  0  0  0  0  0  0  0  0  0  0  0
    6.5799    1.6296   -0.7203 C   0  0  0  0  0  0  0  0  0  0  0  0
   10.3705    4.7556    6.6574 H   0  0  0  0  0  0  0  0  0  0  0  0
    9.8074    3.0884    6.9164 H   0  0  0  0  0  0  0  0  0  0  0  0
    8.7799    4.4730    7.4046 H   0  0  0  0  0  0  0  0  0  0  0  0
    7.6015    3.8657    3.3810 H   0  0  0  0  0  0  0  0  0  0  0  0
    6.4046    2.3581    6.5878 H   0  0  0  0  0  0  0  0  0  0  0  0
    4.8265    1.7786    6.9159 H   0  0  0  0  0  0  0  0  0  0  0  0
    3.1003    0.1210    3.3448 H   0  0  0  0  0  0  0  0  0  0  0  0
    4.0995    3.2536    0.9480 H   0  0  0  0  0  0  0  0  0  0  0  0
    2.9839    2.9800   -1.1403 H   0  0  0  0  0  0  0  0  0  0  0  0
    4.4078    1.1789   -4.0842 H   0  0  0  0  0  0  0  0  0  0  0  0
    2.5449    0.4976   -5.1139 H   0  0  0  0  0  0  0  0  0  0  0  0
    0.2599    3.2253   -4.1653 H   0  0  0  0  0  0  0  0  0  0  0  0
   -2.2036    2.9959   -4.1325 H   0  0  0  0  0  0  0  0  0  0  0  0
   -1.8614   -1.0503   -5.4962 H   0  0  0  0  0  0  0  0  0  0  0  0
    0.6102   -0.8464   -5.5722 H   0  0  0  0  0  0  0  0  0  0  0  0
    7.5883    1.2546   -0.5835 H   0  0  0  0  0  0  0  0  0  0  0  0
  1  2  1  0  0  0  0
  1 31  1  0  0  0  0
  1 32  1  0  0  0  0
  1 33  1  0  0  0  0
  2  3  1  0  0  0  0
  3  4  2  0  0  0  0
  4  5  1  0  0  0  0
  4 34  1  0  0  0  0
  5  6  1  0  0  0  0
  5 11  2  0  0  0  0
  6  7  1  0  0  0  0
  6  8  2  0  0  0  0
  7 35  1  0  0  0  0
  7 36  1  0  0  0  0
  8  9  1  0  0  0  0
  9 10  2  0  0  0  0
  9 37  1  0  0  0  0
 10 11  1  0  0  0  0
 11 12  1  0  0  0  0
 12 13  1  0  0  0  0
 13 14  1  0  0  0  0
 13 30  2  0  0  0  0
 14 15  2  0  0  0  0
 14 38  1  0  0  0  0
 15 16  1  0  0  0  0
 15 39  1  0  0  0  0
 16 17  1  0  0  0  0
 16 28  2  0  0  0  0
 17 18  1  0  0  0  0
 17 40  1  0  0  0  0
 18 19  2  0  0  0  0
 18 20  1  0  0  0  0
 20 21  1  0  0  0  0
 20 41  1  0  0  0  0
 21 22  1  0  0  0  0
 21 27  2  0  0  0  0
 22 23  2  0  0  0  0
 22 42  1  0  0  0  0
 23 24  1  0  0  0  0
 23 43  1  0  0  0  0
 24 25  1  0  0  0  0
 24 26  2  0  0  0  0
 26 27  1  0  0  0  0
 26 44  1  0  0  0  0
 27 45  1  0  0  0  0
 28 29  1  0  0  0  0
 28 30  1  0  0  0  0
 30 46  1  0  0  0  0
M  END
$$$$
