CHEMBL3671538
 OpenBabel04072215373D

 64 66  0  0  0  0  0  0  0  0999 V2000
    1.4428   -1.0500   -0.9945 C   0  0  0  0  0  0  0  0  0  0  0  0
    2.5324   -0.4316   -0.5229 C   0  0  0  0  0  0  0  0  0  0  0  0
    3.0567    0.7824   -1.2004 C   0  0  0  0  0  0  0  0  0  0  0  0
    2.3728    1.4347   -1.9794 O   0  0  0  0  0  0  0  0  0  0  0  0
    4.3768    1.0308   -0.8787 N   0  0  0  0  0  0  0  0  0  0  0  0
    5.0555    2.1367   -1.4134 C   0  0  0  0  0  0  0  0  0  0  0  0
    6.1684    1.8718   -2.2099 C   0  0  0  0  0  0  0  0  0  0  0  0
    6.7724    2.9047   -2.9684 C   0  0  0  0  0  0  0  0  0  0  0  0
    7.8243    2.7152   -3.8808 C   0  0  0  0  0  0  0  0  0  0  0  0
    8.2668    1.4009   -4.1503 N   0  0  0  0  0  0  0  0  0  0  0  0
    9.5551    0.9774   -4.5343 C   0  0  0  0  0  0  0  0  0  0  0  0
   10.7063    1.6674   -4.1379 C   0  0  0  0  0  0  0  0  0  0  0  0
   11.9731    1.1057   -4.3190 C   0  0  0  0  0  0  0  0  0  0  0  0
   12.0968   -0.1509   -4.9094 C   0  0  0  0  0  0  0  0  0  0  0  0
   13.7986   -0.9642   -5.0250 Br  0  0  0  0  0  0  0  0  0  0  0  0
   10.9733   -0.8297   -5.3687 C   0  0  0  0  0  0  0  0  0  0  0  0
    9.7180   -0.2631   -5.1703 C   0  0  0  0  0  0  0  0  0  0  0  0
    8.6310   -0.9421   -5.5721 F   0  0  0  0  0  0  0  0  0  0  0  0
    8.3911    3.7358   -4.5489 N   0  0  0  0  0  0  0  0  0  0  0  0
    7.8721    4.9480   -4.3362 C   0  0  0  0  0  0  0  0  0  0  0  0
    6.8624    5.2410   -3.5101 N   0  0  0  0  0  0  0  0  0  0  0  0
    6.3196    4.2204   -2.8379 C   0  0  0  0  0  0  0  0  0  0  0  0
    5.2689    4.4773   -1.9684 C   0  0  0  0  0  0  0  0  0  0  0  0
    4.6415    3.4621   -1.2360 C   0  0  0  0  0  0  0  0  0  0  0  0
    3.7007    3.9297   -0.3549 O   0  0  0  0  0  0  0  0  0  0  0  0
    3.5550    3.2796    0.9117 C   0  0  0  0  0  0  0  0  0  0  0  0
    4.8282    3.2344    1.7658 C   0  0  0  0  0  0  0  0  0  0  0  0
    4.6614    2.4170    2.9543 N   0  0  0  0  0  0  0  0  0  0  0  0
    4.7853    1.0469    2.9188 C   0  0  0  0  0  0  0  0  0  0  0  0
    5.0450    0.4068    1.9028 O   0  0  0  0  0  0  0  0  0  0  0  0
    4.6050    0.3769    4.2619 C   0  0  0  0  0  0  0  0  0  0  0  0
    5.9083    0.3441    5.0581 C   0  0  0  0  0  0  0  0  0  0  0  0
    6.4327    1.7238    5.4873 C   0  0  0  0  0  0  0  0  0  0  0  0
    5.4430    2.5330    6.2238 N   0  0  0  0  0  0  0  0  0  0  0  0
    5.1166    1.9184    7.5179 C   0  0  0  0  0  0  0  0  0  0  0  0
    5.9761    3.8810    6.4562 C   0  0  0  0  0  0  0  0  0  0  0  0
    1.0245   -1.9098   -0.4845 H   0  0  0  0  0  0  0  0  0  0  0  0
    0.9432   -0.7045   -1.8964 H   0  0  0  0  0  0  0  0  0  0  0  0
    3.0250   -0.7620    0.3838 H   0  0  0  0  0  0  0  0  0  0  0  0
    4.9221    0.2510   -0.5281 H   0  0  0  0  0  0  0  0  0  0  0  0
    6.5339    0.8515   -2.3006 H   0  0  0  0  0  0  0  0  0  0  0  0
    7.5282    0.8562   -4.5895 H   0  0  0  0  0  0  0  0  0  0  0  0
   10.6244    2.6305   -3.6401 H   0  0  0  0  0  0  0  0  0  0  0  0
   12.8472    1.6443   -3.9621 H   0  0  0  0  0  0  0  0  0  0  0  0
   11.0506   -1.8021   -5.8425 H   0  0  0  0  0  0  0  0  0  0  0  0
    8.3053    5.7722   -4.8923 H   0  0  0  0  0  0  0  0  0  0  0  0
    4.9298    5.5064   -1.8513 H   0  0  0  0  0  0  0  0  0  0  0  0
    3.0885    2.2994    0.8085 H   0  0  0  0  0  0  0  0  0  0  0  0
    2.8105    3.8675    1.4633 H   0  0  0  0  0  0  0  0  0  0  0  0
    5.0993    4.2453    2.0889 H   0  0  0  0  0  0  0  0  0  0  0  0
    5.6840    2.8448    1.2062 H   0  0  0  0  0  0  0  0  0  0  0  0
    4.4900    2.8671    3.8508 H   0  0  0  0  0  0  0  0  0  0  0  0
    4.2620   -0.6480    4.0753 H   0  0  0  0  0  0  0  0  0  0  0  0
    3.7995    0.8707    4.8168 H   0  0  0  0  0  0  0  0  0  0  0  0
    6.6858   -0.1458    4.4586 H   0  0  0  0  0  0  0  0  0  0  0  0
    5.7652   -0.2889    5.9418 H   0  0  0  0  0  0  0  0  0  0  0  0
    6.7436    2.2656    4.5853 H   0  0  0  0  0  0  0  0  0  0  0  0
    7.3453    1.5887    6.0824 H   0  0  0  0  0  0  0  0  0  0  0  0
    4.5885    0.9694    7.3817 H   0  0  0  0  0  0  0  0  0  0  0  0
    4.4380    2.5594    8.0919 H   0  0  0  0  0  0  0  0  0  0  0  0
    6.0111    1.7352    8.1246 H   0  0  0  0  0  0  0  0  0  0  0  0
    6.1644    4.3888    5.5040 H   0  0  0  0  0  0  0  0  0  0  0  0
    6.9081    3.8644    7.0329 H   0  0  0  0  0  0  0  0  0  0  0  0
    5.2469    4.4947    6.9975 H   0  0  0  0  0  0  0  0  0  0  0  0
  1  2  2  0  0  0  0
  1 37  1  0  0  0  0
  1 38  1  0  0  0  0
  2  3  1  0  0  0  0
  2 39  1  0  0  0  0
  3  4  2  0  0  0  0
  3  5  1  0  0  0  0
  5  6  1  0  0  0  0
  5 40  1  0  0  0  0
  6  7  1  0  0  0  0
  6 24  2  0  0  0  0
  7  8  2  0  0  0  0
  7 41  1  0  0  0  0
  8  9  1  0  0  0  0
  8 22  1  0  0  0  0
  9 10  1  0  0  0  0
  9 19  2  0  0  0  0
 10 11  1  0  0  0  0
 10 42  1  0  0  0  0
 11 12  1  0  0  0  0
 11 17  2  0  0  0  0
 12 13  2  0  0  0  0
 12 43  1  0  0  0  0
 13 14  1  0  0  0  0
 13 44  1  0  0  0  0
 14 15  1  0  0  0  0
 14 16  2  0  0  0  0
 16 17  1  0  0  0  0
 16 45  1  0  0  0  0
 17 18  1  0  0  0  0
 19 20  1  0  0  0  0
 20 21  2  0  0  0  0
 20 46  1  0  0  0  0
 21 22  1  0  0  0  0
 22 23  2  0  0  0  0
 23 24  1  0  0  0  0
 23 47  1  0  0  0  0
 24 25  1  0  0  0  0
 25 26  1  0  0  0  0
 26 27  1  0  0  0  0
 26 48  1  0  0  0  0
 26 49  1  0  0  0  0
 27 28  1  0  0  0  0
 27 50  1  0  0  0  0
 27 51  1  0  0  0  0
 28 29  1  0  0  0  0
 28 52  1  0  0  0  0
 29 30  2  0  0  0  0
 29 31  1  0  0  0  0
 31 32  1  0  0  0  0
 31 53  1  0  0  0  0
 31 54  1  0  0  0  0
 32 33  1  0  0  0  0
 32 55  1  0  0  0  0
 32 56  1  0  0  0  0
 33 34  1  0  0  0  0
 33 57  1  0  0  0  0
 33 58  1  0  0  0  0
 34 35  1  0  0  0  0
 34 36  1  0  0  0  0
 35 59  1  0  0  0  0
 35 60  1  0  0  0  0
 35 61  1  0  0  0  0
 36 62  1  0  0  0  0
 36 63  1  0  0  0  0
 36 64  1  0  0  0  0
M  END
$$$$
