CHEMBL1681943
 OpenBabel04072215363D

 42 44  0  0  0  0  0  0  0  0999 V2000
   10.2299   -0.9775    7.0923 C   0  0  0  0  0  0  0  0  0  0  0  0
    9.4841   -0.1654    6.1893 O   0  0  0  0  0  0  0  0  0  0  0  0
    8.3961   -0.9173    5.7290 N   0  0  0  0  0  0  0  0  0  0  0  0
    7.6662   -0.1938    4.9373 C   0  0  0  0  0  0  0  0  0  0  0  0
    6.4398   -0.7318    4.3299 C   0  0  0  0  0  0  0  0  0  0  0  0
    5.7279   -1.7816    4.8998 C   0  0  0  0  0  0  0  0  0  0  0  0
    6.0606   -2.3424    6.1313 N   0  0  0  0  0  0  0  0  0  0  0  0
    4.5925   -2.2632    4.3662 N   0  0  0  0  0  0  0  0  0  0  0  0
    4.1816   -1.7027    3.2247 C   0  0  0  0  0  0  0  0  0  0  0  0
    4.8097   -0.7252    2.5675 N   0  0  0  0  0  0  0  0  0  0  0  0
    5.9250   -0.2284    3.1497 C   0  0  0  0  0  0  0  0  0  0  0  0
    6.6008    0.8045    2.4924 O   0  0  0  0  0  0  0  0  0  0  0  0
    5.8648    1.5651    1.6017 C   0  0  0  0  0  0  0  0  0  0  0  0
    4.6133    2.0744    1.9412 C   0  0  0  0  0  0  0  0  0  0  0  0
    3.8619    2.7707    0.9969 C   0  0  0  0  0  0  0  0  0  0  0  0
    4.3405    2.9936   -0.2995 C   0  0  0  0  0  0  0  0  0  0  0  0
    3.5242    3.5988   -1.3020 N   0  0  0  0  0  0  0  0  0  0  0  0
    2.1325    3.5709   -1.2652 C   0  0  0  0  0  0  0  0  0  0  0  0
    1.4994    3.0081   -0.3760 O   0  0  0  0  0  0  0  0  0  0  0  0
    1.5415    4.1992   -2.3396 N   0  0  0  0  0  0  0  0  0  0  0  0
    0.1683    4.2350   -2.4016 C   0  0  0  0  0  0  0  0  0  0  0  0
   -0.6915    4.0572   -1.4304 N   0  0  0  0  0  0  0  0  0  0  0  0
   -1.9679    4.0049   -1.9378 C   0  0  0  0  0  0  0  0  0  0  0  0
   -2.0656    4.2090   -3.2968 C   0  0  0  0  0  0  0  0  0  0  0  0
   -0.4995    4.5064   -3.9487 S   0  0  0  0  0  0  0  0  0  0  0  0
    5.6518    2.5837   -0.5926 C   0  0  0  0  0  0  0  0  0  0  0  0
    6.3497    2.8918   -2.1456 Cl  0  0  0  0  0  0  0  0  0  0  0  0
    6.4094    1.8675    0.3540 C   0  0  0  0  0  0  0  0  0  0  0  0
   11.1240   -0.4295    7.3995 H   0  0  0  0  0  0  0  0  0  0  0  0
   10.5369   -1.9067    6.6012 H   0  0  0  0  0  0  0  0  0  0  0  0
    9.6315   -1.2054    7.9806 H   0  0  0  0  0  0  0  0  0  0  0  0
    7.9493    0.8456    4.6930 H   0  0  0  0  0  0  0  0  0  0  0  0
    7.0672   -2.4779    6.2262 H   0  0  0  0  0  0  0  0  0  0  0  0
    5.5038   -3.1745    6.2919 H   0  0  0  0  0  0  0  0  0  0  0  0
    3.2511   -2.0658    2.8021 H   0  0  0  0  0  0  0  0  0  0  0  0
    4.1764    1.8894    2.9170 H   0  0  0  0  0  0  0  0  0  0  0  0
    2.8804    3.1138    1.3120 H   0  0  0  0  0  0  0  0  0  0  0  0
    3.9768    3.8051   -2.1799 H   0  0  0  0  0  0  0  0  0  0  0  0
    2.0448    4.3652   -3.1945 H   0  0  0  0  0  0  0  0  0  0  0  0
   -2.7913    3.7996   -1.2637 H   0  0  0  0  0  0  0  0  0  0  0  0
   -2.9531    4.1962   -3.9117 H   0  0  0  0  0  0  0  0  0  0  0  0
    7.4077    1.5136    0.1010 H   0  0  0  0  0  0  0  0  0  0  0  0
  1  2  1  0  0  0  0
  1 29  1  0  0  0  0
  1 30  1  0  0  0  0
  1 31  1  0  0  0  0
  2  3  1  0  0  0  0
  3  4  2  0  0  0  0
  4  5  1  0  0  0  0
  4 32  1  0  0  0  0
  5  6  1  0  0  0  0
  5 11  2  0  0  0  0
  6  7  1  0  0  0  0
  6  8  2  0  0  0  0
  7 33  1  0  0  0  0
  7 34  1  0  0  0  0
  8  9  1  0  0  0  0
  9 10  2  0  0  0  0
  9 35  1  0  0  0  0
 10 11  1  0  0  0  0
 11 12  1  0  0  0  0
 12 13  1  0  0  0  0
 13 14  1  0  0  0  0
 13 28  2  0  0  0  0
 14 15  2  0  0  0  0
 14 36  1  0  0  0  0
 15 16  1  0  0  0  0
 15 37  1  0  0  0  0
 16 17  1  0  0  0  0
 16 26  2  0  0  0  0
 17 18  1  0  0  0  0
 17 38  1  0  0  0  0
 18 19  2  0  0  0  0
 18 20  1  0  0  0  0
 20 21  1  0  0  0  0
 20 39  1  0  0  0  0
 21 22  2  0  0  0  0
 21 25  1  0  0  0  0
 22 23  1  0  0  0  0
 23 24  2  0  0  0  0
 23 40  1  0  0  0  0
 24 25  1  0  0  0  0
 24 41  1  0  0  0  0
 26 27  1  0  0  0  0
 26 28  1  0  0  0  0
 28 42  1  0  0  0  0
M  END
$$$$
