CHEMBL3690498
 OpenBabel04072215373D

 44 47  0  0  0  0  0  0  0  0999 V2000
    2.5269    1.5709    0.1345 O   0  0  0  0  0  0  0  0  0  0  0  0
    2.2357    0.4235    0.4426 C   0  0  0  0  0  0  0  0  0  0  0  0
    0.9328   -0.0259    0.3707 N   0  0  0  0  0  0  0  0  0  0  0  0
   -0.1279    0.9427    0.0676 C   0  0  0  0  0  0  0  0  0  0  0  0
   -0.6400    1.7420    1.2742 C   0  0  0  0  0  0  0  0  0  0  0  0
   -0.0596    1.3384    2.4290 F   0  0  0  0  0  0  0  0  0  0  0  0
   -0.4347    3.0675    1.1407 F   0  0  0  0  0  0  0  0  0  0  0  0
   -1.9746    1.5496    1.4227 F   0  0  0  0  0  0  0  0  0  0  0  0
    3.0886   -0.5726    0.8661 N   0  0  0  0  0  0  0  0  0  0  0  0
    4.4876   -0.4825    1.0301 C   0  0  0  0  0  0  0  0  0  0  0  0
    5.2171    0.6764    0.7671 C   0  0  0  0  0  0  0  0  0  0  0  0
    6.6073    0.6737    0.8683 C   0  0  0  0  0  0  0  0  0  0  0  0
    7.2747   -0.4815    1.2630 C   0  0  0  0  0  0  0  0  0  0  0  0
    6.5669   -1.6289    1.6358 C   0  0  0  0  0  0  0  0  0  0  0  0
    7.2485   -2.8078    2.1879 C   0  0  0  0  0  0  0  0  0  0  0  0
    6.9539   -4.1546    2.0328 C   0  0  0  0  0  0  0  0  0  0  0  0
    7.8040   -4.9593    2.7408 N   0  0  0  0  0  0  0  0  0  0  0  0
    8.6283   -4.1357    3.3483 C   0  0  0  0  0  0  0  0  0  0  0  0
    9.7135   -4.4048    4.2294 C   0  0  0  0  0  0  0  0  0  0  0  0
   10.4518   -3.4009    4.7694 C   0  0  0  0  0  0  0  0  0  0  0  0
   11.5713   -3.7366    5.6893 C   0  0  0  0  0  0  0  0  0  0  0  0
   11.7861   -5.0275    6.0141 N   0  0  0  0  0  0  0  0  0  0  0  0
   12.8123   -5.2468    6.8588 C   0  0  0  0  0  0  0  0  0  0  0  0
   13.5934   -4.2343    7.3578 C   0  0  0  0  0  0  0  0  0  0  0  0
   13.3512   -2.9603    7.0131 N   0  0  0  0  0  0  0  0  0  0  0  0
   12.3183   -2.7082    6.1626 N   0  0  0  0  0  0  0  0  0  0  0  0
   10.0980   -2.0143    4.4380 C   0  0  0  0  0  0  0  0  0  0  0  0
    9.0589   -1.7539    3.6296 C   0  0  0  0  0  0  0  0  0  0  0  0
    8.3334   -2.8051    3.0653 N   0  0  0  0  0  0  0  0  0  0  0  0
    5.1691   -1.6268    1.4757 C   0  0  0  0  0  0  0  0  0  0  0  0
    0.6875   -0.7596    1.0201 H   0  0  0  0  0  0  0  0  0  0  0  0
   -0.9498    0.3673   -0.3695 H   0  0  0  0  0  0  0  0  0  0  0  0
    0.2288    1.6353   -0.7035 H   0  0  0  0  0  0  0  0  0  0  0  0
    2.6776   -1.4836    0.9986 H   0  0  0  0  0  0  0  0  0  0  0  0
    4.7394    1.5998    0.4589 H   0  0  0  0  0  0  0  0  0  0  0  0
    7.1646    1.5766    0.6381 H   0  0  0  0  0  0  0  0  0  0  0  0
    8.3617   -0.4610    1.2767 H   0  0  0  0  0  0  0  0  0  0  0  0
    6.1619   -4.5894    1.4362 H   0  0  0  0  0  0  0  0  0  0  0  0
    9.9145   -5.4488    4.4481 H   0  0  0  0  0  0  0  0  0  0  0  0
   12.9894   -6.2826    7.1258 H   0  0  0  0  0  0  0  0  0  0  0  0
   14.4189   -4.4068    8.0334 H   0  0  0  0  0  0  0  0  0  0  0  0
   10.6823   -1.2037    4.8662 H   0  0  0  0  0  0  0  0  0  0  0  0
    8.7671   -0.7390    3.4056 H   0  0  0  0  0  0  0  0  0  0  0  0
    4.6053   -2.5237    1.7202 H   0  0  0  0  0  0  0  0  0  0  0  0
  1  2  2  0  0  0  0
  2  3  1  0  0  0  0
  2  9  1  0  0  0  0
  3  4  1  0  0  0  0
  3 31  1  0  0  0  0
  4  5  1  0  0  0  0
  4 32  1  0  0  0  0
  4 33  1  0  0  0  0
  5  6  1  0  0  0  0
  5  7  1  0  0  0  0
  5  8  1  0  0  0  0
  9 10  1  0  0  0  0
  9 34  1  0  0  0  0
 10 11  1  0  0  0  0
 10 30  2  0  0  0  0
 11 12  2  0  0  0  0
 11 35  1  0  0  0  0
 12 13  1  0  0  0  0
 12 36  1  0  0  0  0
 13 14  2  0  0  0  0
 13 37  1  0  0  0  0
 14 15  1  0  0  0  0
 14 30  1  0  0  0  0
 15 16  2  0  0  0  0
 15 29  1  0  0  0  0
 16 17  1  0  0  0  0
 16 38  1  0  0  0  0
 17 18  2  0  0  0  0
 18 19  1  0  0  0  0
 18 29  1  0  0  0  0
 19 20  2  0  0  0  0
 19 39  1  0  0  0  0
 20 21  1  0  0  0  0
 20 27  1  0  0  0  0
 21 22  1  0  0  0  0
 21 26  2  0  0  0  0
 22 23  2  0  0  0  0
 23 24  1  0  0  0  0
 23 40  1  0  0  0  0
 24 25  2  0  0  0  0
 24 41  1  0  0  0  0
 25 26  1  0  0  0  0
 27 28  2  0  0  0  0
 27 42  1  0  0  0  0
 28 29  1  0  0  0  0
 28 43  1  0  0  0  0
 30 44  1  0  0  0  0
M  END
$$$$
