CHEMBL204700
 OpenBabel04072215363D

 55 58  0  0  0  0  0  0  0  0999 V2000
    9.5469  -11.3441    3.6581 N   0  0  0  0  0  0  0  0  0  0  0  0
    9.0149  -10.3672    3.3490 C   0  0  0  0  0  0  0  0  0  0  0  0
    8.3406   -9.1846    2.9343 C   0  0  0  0  0  0  0  0  0  0  0  0
    7.3593   -9.1266    1.9747 C   0  0  0  0  0  0  0  0  0  0  0  0
    6.8617   -7.8684    1.7356 N   0  0  0  0  0  0  0  0  0  0  0  0
    7.4894   -6.9553    2.4485 C   0  0  0  0  0  0  0  0  0  0  0  0
    7.3231   -5.6112    2.3502 N   0  0  0  0  0  0  0  0  0  0  0  0
    6.9144   -4.9606    1.1726 C   0  0  0  0  0  0  0  0  0  0  0  0
    6.1057   -5.5717    0.2423 C   0  0  0  0  0  0  0  0  0  0  0  0
    5.9233   -4.9775   -0.9888 C   0  0  0  0  0  0  0  0  0  0  0  0
    5.2485   -5.6904   -1.9639 N   0  0  0  0  0  0  0  0  0  0  0  0
    5.5376   -5.4582   -3.3869 C   0  0  0  0  0  0  0  0  0  0  0  0
    4.2894   -5.0305   -4.2003 C   0  0  0  0  0  0  0  0  0  0  0  0
    3.0439   -5.8004   -3.9014 N   0  0  0  0  0  0  0  0  0  0  0  0
    3.2023   -7.2133   -4.3423 C   0  0  0  0  0  0  0  0  0  0  0  0
    1.9737   -8.1496   -4.2328 C   0  0  0  0  0  0  0  0  0  0  0  0
    1.6133   -8.5304   -2.7924 C   0  0  0  0  0  0  0  0  0  0  0  0
    0.3901   -9.3061   -2.5326 N   0  0  0  0  0  0  0  0  0  0  0  0
   -0.8193   -8.7356   -3.1706 C   0  0  0  0  0  0  0  0  0  0  0  0
   -1.2723   -7.3899   -2.5779 C   0  0  0  0  0  0  0  0  0  0  0  0
   -1.5359   -7.5097   -1.1740 O   0  0  0  0  0  0  0  0  0  0  0  0
   -0.3822   -7.9872   -0.4744 C   0  0  0  0  0  0  0  0  0  0  0  0
    0.1367   -9.3238   -1.0592 C   0  0  0  0  0  0  0  0  0  0  0  0
    2.8483   -5.5981   -2.4476 C   0  0  0  0  0  0  0  0  0  0  0  0
    3.9463   -6.2559   -1.5966 C   0  0  0  0  0  0  0  0  0  0  0  0
    6.4379   -3.7708   -1.2462 N   0  0  0  0  0  0  0  0  0  0  0  0
    7.1097   -3.1901   -0.2430 C   0  0  0  0  0  0  0  0  0  0  0  0
    7.3899   -3.7259    0.9587 N   0  0  0  0  0  0  0  0  0  0  0  0
    8.6405   -7.6168    3.5534 S   0  0  0  0  0  0  0  0  0  0  0  0
    6.9646   -9.9607    1.4072 H   0  0  0  0  0  0  0  0  0  0  0  0
    7.9634   -5.0081    2.8520 H   0  0  0  0  0  0  0  0  0  0  0  0
    5.6787   -6.5468    0.4202 H   0  0  0  0  0  0  0  0  0  0  0  0
    5.9230   -6.3983   -3.8012 H   0  0  0  0  0  0  0  0  0  0  0  0
    6.3339   -4.7208   -3.5388 H   0  0  0  0  0  0  0  0  0  0  0  0
    4.5071   -5.0688   -5.2735 H   0  0  0  0  0  0  0  0  0  0  0  0
    4.0884   -3.9716   -3.9848 H   0  0  0  0  0  0  0  0  0  0  0  0
    4.0577   -7.7085   -3.8683 H   0  0  0  0  0  0  0  0  0  0  0  0
    3.4493   -7.1803   -5.4128 H   0  0  0  0  0  0  0  0  0  0  0  0
    2.2018   -9.0746   -4.7806 H   0  0  0  0  0  0  0  0  0  0  0  0
    1.1398   -7.6725   -4.7548 H   0  0  0  0  0  0  0  0  0  0  0  0
    1.5220   -7.6295   -2.2175 H   0  0  0  0  0  0  0  0  0  0  0  0
    2.4634   -9.0762   -2.3641 H   0  0  0  0  0  0  0  0  0  0  0  0
   -1.6306   -9.4613   -3.0274 H   0  0  0  0  0  0  0  0  0  0  0  0
   -0.6917   -8.6536   -4.2541 H   0  0  0  0  0  0  0  0  0  0  0  0
   -2.2035   -7.0726   -3.0581 H   0  0  0  0  0  0  0  0  0  0  0  0
   -0.5347   -6.5964   -2.7448 H   0  0  0  0  0  0  0  0  0  0  0  0
   -0.6682   -8.1300    0.5727 H   0  0  0  0  0  0  0  0  0  0  0  0
    0.3852   -7.2042   -0.4826 H   0  0  0  0  0  0  0  0  0  0  0  0
   -0.6132  -10.0989   -0.8625 H   0  0  0  0  0  0  0  0  0  0  0  0
    1.0435   -9.6288   -0.5217 H   0  0  0  0  0  0  0  0  0  0  0  0
    1.8451   -5.8704   -2.1273 H   0  0  0  0  0  0  0  0  0  0  0  0
    2.8561   -4.5196   -2.2327 H   0  0  0  0  0  0  0  0  0  0  0  0
    3.9858   -7.3419   -1.7330 H   0  0  0  0  0  0  0  0  0  0  0  0
    3.6886   -6.1035   -0.5416 H   0  0  0  0  0  0  0  0  0  0  0  0
    7.4761   -2.1860   -0.4267 H   0  0  0  0  0  0  0  0  0  0  0  0
  1  2  3  0  0  0  0
  2  3  1  0  0  0  0
  3  4  2  0  0  0  0
  3 29  1  0  0  0  0
  4  5  1  0  0  0  0
  4 30  1  0  0  0  0
  5  6  2  0  0  0  0
  6  7  1  0  0  0  0
  6 29  1  0  0  0  0
  7  8  1  0  0  0  0
  7 31  1  0  0  0  0
  8  9  1  0  0  0  0
  8 28  2  0  0  0  0
  9 10  2  0  0  0  0
  9 32  1  0  0  0  0
 10 11  1  0  0  0  0
 10 26  1  0  0  0  0
 11 12  1  0  0  0  0
 11 25  1  0  0  0  0
 12 13  1  0  0  0  0
 12 33  1  0  0  0  0
 12 34  1  0  0  0  0
 13 14  1  0  0  0  0
 13 35  1  0  0  0  0
 13 36  1  0  0  0  0
 14 15  1  0  0  0  0
 14 24  1  0  0  0  0
 15 16  1  0  0  0  0
 15 37  1  0  0  0  0
 15 38  1  0  0  0  0
 16 17  1  0  0  0  0
 16 39  1  0  0  0  0
 16 40  1  0  0  0  0
 17 18  1  0  0  0  0
 17 41  1  0  0  0  0
 17 42  1  0  0  0  0
 18 19  1  0  0  0  0
 18 23  1  0  0  0  0
 19 20  1  0  0  0  0
 19 43  1  0  0  0  0
 19 44  1  0  0  0  0
 20 21  1  0  0  0  0
 20 45  1  0  0  0  0
 20 46  1  0  0  0  0
 21 22  1  0  0  0  0
 22 23  1  0  0  0  0
 22 47  1  0  0  0  0
 22 48  1  0  0  0  0
 23 49  1  0  0  0  0
 23 50  1  0  0  0  0
 24 25  1  0  0  0  0
 24 51  1  0  0  0  0
 24 52  1  0  0  0  0
 25 53  1  0  0  0  0
 25 54  1  0  0  0  0
 26 27  2  0  0  0  0
 27 28  1  0  0  0  0
 27 55  1  0  0  0  0
M  END
$$$$
