CHEMBL243909
 OpenBabel04072215363D

 50 53  0  0  0  0  0  0  0  0999 V2000
    8.9018    4.1624   10.2873 C   0  0  0  0  0  0  0  0  0  0  0  0
    7.9616    4.3262    9.2196 O   0  0  0  0  0  0  0  0  0  0  0  0
    8.5341    4.7492    8.0556 C   0  0  0  0  0  0  0  0  0  0  0  0
    9.7339    4.9273    7.9272 O   0  0  0  0  0  0  0  0  0  0  0  0
    7.5368    4.9713    7.1416 N   0  0  0  0  0  0  0  0  0  0  0  0
    7.8237    5.3717    5.8632 C   0  0  0  0  0  0  0  0  0  0  0  0
    8.9876    5.3282    5.2658 N   0  0  0  0  0  0  0  0  0  0  0  0
    8.7944    5.8484    4.0195 C   0  0  0  0  0  0  0  0  0  0  0  0
    9.7139    6.0115    2.9803 C   0  0  0  0  0  0  0  0  0  0  0  0
    9.2852    6.6238    1.8009 C   0  0  0  0  0  0  0  0  0  0  0  0
    7.9825    7.1302    1.6856 C   0  0  0  0  0  0  0  0  0  0  0  0
    7.5496    7.8479    0.5852 O   0  0  0  0  0  0  0  0  0  0  0  0
    8.4325    8.6992   -0.0435 C   0  0  0  0  0  0  0  0  0  0  0  0
    8.2682    8.8688   -1.4135 C   0  0  0  0  0  0  0  0  0  0  0  0
    9.1819    9.6441   -2.1387 C   0  0  0  0  0  0  0  0  0  0  0  0
   10.2782   10.2555   -1.5189 C   0  0  0  0  0  0  0  0  0  0  0  0
   11.2897   10.9581   -2.2256 N   0  0  0  0  0  0  0  0  0  0  0  0
   11.3088   11.1768   -3.5887 C   0  0  0  0  0  0  0  0  0  0  0  0
   10.4244   10.8312   -4.3728 O   0  0  0  0  0  0  0  0  0  0  0  0
   12.4561   11.8285   -4.0226 N   0  0  0  0  0  0  0  0  0  0  0  0
   12.5787   12.1007   -5.4167 C   0  0  0  0  0  0  0  0  0  0  0  0
   11.5785   12.7921   -6.1098 C   0  0  0  0  0  0  0  0  0  0  0  0
   11.6829   12.9585   -7.4881 C   0  0  0  0  0  0  0  0  0  0  0  0
   10.7218   13.6171   -8.1488 F   0  0  0  0  0  0  0  0  0  0  0  0
   12.7634   12.4394   -8.1956 C   0  0  0  0  0  0  0  0  0  0  0  0
   13.7698   11.7593   -7.5089 C   0  0  0  0  0  0  0  0  0  0  0  0
   13.6816   11.6127   -6.1237 C   0  0  0  0  0  0  0  0  0  0  0  0
   14.6343   10.9238   -5.4777 F   0  0  0  0  0  0  0  0  0  0  0  0
   10.3869   10.1498   -0.1274 C   0  0  0  0  0  0  0  0  0  0  0  0
    9.4513    9.4056    0.6049 C   0  0  0  0  0  0  0  0  0  0  0  0
    7.0271    6.9055    2.6919 C   0  0  0  0  0  0  0  0  0  0  0  0
    7.4760    6.2570    3.8485 C   0  0  0  0  0  0  0  0  0  0  0  0
    6.8633    5.8809    5.0211 N   0  0  0  0  0  0  0  0  0  0  0  0
    8.4055    3.6349   11.1064 H   0  0  0  0  0  0  0  0  0  0  0  0
    9.2192    5.1459   10.6484 H   0  0  0  0  0  0  0  0  0  0  0  0
    9.7689    3.5689    9.9772 H   0  0  0  0  0  0  0  0  0  0  0  0
    6.5912    4.8925    7.4762 H   0  0  0  0  0  0  0  0  0  0  0  0
   10.7389    5.6817    3.1057 H   0  0  0  0  0  0  0  0  0  0  0  0
   10.0013    6.7385    0.9902 H   0  0  0  0  0  0  0  0  0  0  0  0
    7.4474    8.3892   -1.9403 H   0  0  0  0  0  0  0  0  0  0  0  0
    9.0038    9.7260   -3.2051 H   0  0  0  0  0  0  0  0  0  0  0  0
   12.0395   11.3563   -1.6833 H   0  0  0  0  0  0  0  0  0  0  0  0
   13.3068   11.5033   -3.5793 H   0  0  0  0  0  0  0  0  0  0  0  0
   10.7067   13.1857   -5.5956 H   0  0  0  0  0  0  0  0  0  0  0  0
   12.8051   12.5605   -9.2741 H   0  0  0  0  0  0  0  0  0  0  0  0
   14.6072   11.3254   -8.0462 H   0  0  0  0  0  0  0  0  0  0  0  0
   11.2028   10.6220    0.4140 H   0  0  0  0  0  0  0  0  0  0  0  0
    9.5574    9.3422    1.6865 H   0  0  0  0  0  0  0  0  0  0  0  0
    6.0039    7.2488    2.5806 H   0  0  0  0  0  0  0  0  0  0  0  0
    5.8932    6.0201    5.2495 H   0  0  0  0  0  0  0  0  0  0  0  0
  1  2  1  0  0  0  0
  1 34  1  0  0  0  0
  1 35  1  0  0  0  0
  1 36  1  0  0  0  0
  2  3  1  0  0  0  0
  3  4  2  0  0  0  0
  3  5  1  0  0  0  0
  5  6  1  0  0  0  0
  5 37  1  0  0  0  0
  6  7  2  0  0  0  0
  6 33  1  0  0  0  0
  7  8  1  0  0  0  0
  8  9  1  0  0  0  0
  8 32  2  0  0  0  0
  9 10  2  0  0  0  0
  9 38  1  0  0  0  0
 10 11  1  0  0  0  0
 10 39  1  0  0  0  0
 11 12  1  0  0  0  0
 11 31  2  0  0  0  0
 12 13  1  0  0  0  0
 13 14  1  0  0  0  0
 13 30  2  0  0  0  0
 14 15  2  0  0  0  0
 14 40  1  0  0  0  0
 15 16  1  0  0  0  0
 15 41  1  0  0  0  0
 16 17  1  0  0  0  0
 16 29  2  0  0  0  0
 17 18  1  0  0  0  0
 17 42  1  0  0  0  0
 18 19  2  0  0  0  0
 18 20  1  0  0  0  0
 20 21  1  0  0  0  0
 20 43  1  0  0  0  0
 21 22  1  0  0  0  0
 21 27  2  0  0  0  0
 22 23  2  0  0  0  0
 22 44  1  0  0  0  0
 23 24  1  0  0  0  0
 23 25  1  0  0  0  0
 25 26  2  0  0  0  0
 25 45  1  0  0  0  0
 26 27  1  0  0  0  0
 26 46  1  0  0  0  0
 27 28  1  0  0  0  0
 29 30  1  0  0  0  0
 29 47  1  0  0  0  0
 30 48  1  0  0  0  0
 31 32  1  0  0  0  0
 31 49  1  0  0  0  0
 32 33  1  0  0  0  0
 33 50  1  0  0  0  0
M  END
$$$$
