CHEMBL4446992
 OpenBabel04072215383D

 84 89  0  0  1  0  0  0  0  0999 V2000
    2.0019   -0.8295   -0.9363 C   0  0  0  0  0  0  0  0  0  0  0  0
    1.8432    0.3722   -0.1866 O   0  0  0  0  0  0  0  0  0  0  0  0
    2.7148    1.4040   -0.4287 C   0  0  0  0  0  0  0  0  0  0  0  0
    3.8365    1.3065   -1.2830 C   0  0  0  0  0  0  0  0  0  0  0  0
    4.6886    2.4200   -1.5317 C   0  0  0  0  0  0  0  0  0  0  0  0
    5.8037    2.4429   -2.4041 C   0  0  0  0  0  0  0  0  0  0  0  0
    6.0556    1.3262   -3.1984 O   0  0  0  0  0  0  0  0  0  0  0  0
    6.8047    1.5317   -4.3471 C   0  0  0  0  0  0  0  0  0  0  0  0
    6.4672    2.5291   -5.2721 C   0  0  0  0  0  0  0  0  0  0  0  0
    7.3736    2.8870   -6.2758 C   0  0  0  0  0  0  0  0  0  0  0  0
    8.6020    2.2196   -6.4029 C   0  0  0  0  0  0  0  0  0  0  0  0
    9.6721    2.6942   -7.3698 C   0  0  3  0  0  0  0  0  0  0  0  0
   10.3468    4.3145   -6.8428 S   0  0  0  0  0  0  0  0  0  0  0  0
   10.5927    4.8913   -8.5404 C   0  0  0  0  0  0  0  0  0  0  0  0
    9.8277    3.9511   -9.4449 C   0  0  0  0  0  0  0  0  0  0  0  0
    9.7157    4.1013  -10.6586 O   0  0  0  0  0  0  0  0  0  0  0  0
    9.2546    2.9038   -8.7453 N   0  0  0  0  0  0  0  0  0  0  0  0
    8.5957    1.8806   -9.4877 N   0  0  0  0  0  0  0  0  0  0  0  0
    8.8564    0.5415   -9.2382 C   0  0  0  0  0  0  0  0  0  0  0  0
    9.6777    0.1683   -8.4092 O   0  0  0  0  0  0  0  0  0  0  0  0
    8.0181   -0.2853   -9.9606 N   0  0  0  0  0  0  0  0  0  0  0  0
    7.8302   -1.6709   -9.7279 C   0  0  0  0  0  0  0  0  0  0  0  0
    8.6197   -2.4250   -8.8569 C   0  0  0  0  0  0  0  0  0  0  0  0
    8.3060   -3.7596   -8.5873 C   0  0  0  0  0  0  0  0  0  0  0  0
    7.2111   -4.3494   -9.2082 C   0  0  0  0  0  0  0  0  0  0  0  0
    6.9015   -5.6187   -8.9214 F   0  0  0  0  0  0  0  0  0  0  0  0
    6.4351   -3.6375  -10.1110 C   0  0  0  0  0  0  0  0  0  0  0  0
    6.7531   -2.3058  -10.3640 C   0  0  0  0  0  0  0  0  0  0  0  0
    5.9889   -1.6109  -11.2221 F   0  0  0  0  0  0  0  0  0  0  0  0
    8.8542    1.1231   -5.5550 C   0  0  0  0  0  0  0  0  0  0  0  0
    7.9553    0.7819   -4.5430 C   0  0  0  0  0  0  0  0  0  0  0  0
    8.2526   -0.2378   -3.7243 F   0  0  0  0  0  0  0  0  0  0  0  0
    6.6155    3.5822   -2.4532 C   0  0  0  0  0  0  0  0  0  0  0  0
    6.2233    4.7047   -1.7651 C   0  0  0  0  0  0  0  0  0  0  0  0
    5.1395    4.7412   -0.9822 N   0  0  0  0  0  0  0  0  0  0  0  0
    4.4131    3.6177   -0.8485 C   0  0  0  0  0  0  0  0  0  0  0  0
    3.3398    3.6930   -0.0004 C   0  0  0  0  0  0  0  0  0  0  0  0
    2.4497    2.6294    0.2094 C   0  0  0  0  0  0  0  0  0  0  0  0
    1.3242    2.7654    1.0195 O   0  0  0  0  0  0  0  0  0  0  0  0
    0.9976    4.1395    1.3138 C   0  0  0  0  0  0  0  0  0  0  0  0
   -0.3745    4.3413    1.9531 C   0  0  0  0  0  0  0  0  0  0  0  0
   -0.7301    5.8476    2.0361 C   0  0  0  0  0  0  0  0  0  0  0  0
   -0.6939    6.5679    0.7502 N   0  0  0  0  0  0  0  0  0  0  0  0
   -1.6619    6.0482   -0.2329 C   0  0  0  0  0  0  0  0  0  0  0  0
   -1.5943    6.8173   -1.5751 C   0  0  0  0  0  0  0  0  0  0  0  0
   -1.7761    8.2776   -1.4723 N   0  0  0  0  0  0  0  0  0  0  0  0
   -3.1717    8.6347   -1.2377 C   0  0  0  0  0  0  0  0  0  0  0  0
   -0.8862    8.8016   -0.4169 C   0  0  0  0  0  0  0  0  0  0  0  0
   -0.9073    8.0207    0.9254 C   0  0  0  0  0  0  0  0  0  0  0  0
    2.7613   -1.4709   -0.4758 H   0  0  0  0  0  0  0  0  0  0  0  0
    2.2338   -0.6485   -1.9910 H   0  0  0  0  0  0  0  0  0  0  0  0
    1.0483   -1.3664   -0.9169 H   0  0  0  0  0  0  0  0  0  0  0  0
    4.0891    0.3691   -1.7687 H   0  0  0  0  0  0  0  0  0  0  0  0
    5.5462    3.0958   -5.1581 H   0  0  0  0  0  0  0  0  0  0  0  0
    7.1368    3.7312   -6.9211 H   0  0  0  0  0  0  0  0  0  0  0  0
   10.5421    2.0300   -7.3697 H   0  0  0  0  0  0  0  0  0  0  0  0
   11.6553    4.8634   -8.7934 H   0  0  0  0  0  0  0  0  0  0  0  0
   10.2034    5.9071   -8.6469 H   0  0  0  0  0  0  0  0  0  0  0  0
    8.4953    2.1267  -10.4725 H   0  0  0  0  0  0  0  0  0  0  0  0
    7.3377    0.1532  -10.5685 H   0  0  0  0  0  0  0  0  0  0  0  0
    9.4877   -2.0099   -8.3537 H   0  0  0  0  0  0  0  0  0  0  0  0
    8.9069   -4.3318   -7.8874 H   0  0  0  0  0  0  0  0  0  0  0  0
    5.5880   -4.1078  -10.5925 H   0  0  0  0  0  0  0  0  0  0  0  0
    9.7673    0.5402   -5.6550 H   0  0  0  0  0  0  0  0  0  0  0  0
    7.5234    3.6311   -3.0414 H   0  0  0  0  0  0  0  0  0  0  0  0
    6.7758    5.6341   -1.8321 H   0  0  0  0  0  0  0  0  0  0  0  0
    3.2086    4.6491    0.4981 H   0  0  0  0  0  0  0  0  0  0  0  0
    1.0130    4.7019    0.3743 H   0  0  0  0  0  0  0  0  0  0  0  0
    1.7440    4.5401    2.0118 H   0  0  0  0  0  0  0  0  0  0  0  0
   -0.3647    3.9226    2.9679 H   0  0  0  0  0  0  0  0  0  0  0  0
   -1.1420    3.7808    1.4101 H   0  0  0  0  0  0  0  0  0  0  0  0
    0.0013    6.3167    2.7095 H   0  0  0  0  0  0  0  0  0  0  0  0
   -1.7115    5.9612    2.5124 H   0  0  0  0  0  0  0  0  0  0  0  0
   -2.6807    6.0925    0.1717 H   0  0  0  0  0  0  0  0  0  0  0  0
   -1.4450    4.9985   -0.4563 H   0  0  0  0  0  0  0  0  0  0  0  0
   -2.3235    6.3938   -2.2767 H   0  0  0  0  0  0  0  0  0  0  0  0
   -0.6113    6.6342   -2.0301 H   0  0  0  0  0  0  0  0  0  0  0  0
   -3.8060    8.2429   -2.0414 H   0  0  0  0  0  0  0  0  0  0  0  0
   -3.2927    9.7237   -1.2556 H   0  0  0  0  0  0  0  0  0  0  0  0
   -3.5603    8.2630   -0.2849 H   0  0  0  0  0  0  0  0  0  0  0  0
   -1.1071    9.8604   -0.2302 H   0  0  0  0  0  0  0  0  0  0  0  0
    0.1389    8.7837   -0.8107 H   0  0  0  0  0  0  0  0  0  0  0  0
   -1.8612    8.2077    1.4348 H   0  0  0  0  0  0  0  0  0  0  0  0
   -0.1137    8.4321    1.5612 H   0  0  0  0  0  0  0  0  0  0  0  0
  1  2  1  0  0  0  0
  1 50  1  0  0  0  0
  1 51  1  0  0  0  0
  1 52  1  0  0  0  0
  2  3  1  0  0  0  0
  3  4  1  0  0  0  0
  3 38  2  0  0  0  0
  4  5  2  0  0  0  0
  4 53  1  0  0  0  0
  5  6  1  0  0  0  0
  5 36  1  0  0  0  0
  6  7  1  0  0  0  0
  6 33  2  0  0  0  0
  7  8  1  0  0  0  0
  8  9  1  0  0  0  0
  8 31  2  0  0  0  0
  9 10  2  0  0  0  0
  9 54  1  0  0  0  0
 10 11  1  0  0  0  0
 10 55  1  0  0  0  0
 11 12  1  0  0  0  0
 11 30  2  0  0  0  0
 12 13  1  0  0  0  0
 12 17  1  0  0  0  0
 12 56  1  0  0  0  0
 13 14  1  0  0  0  0
 14 15  1  0  0  0  0
 14 57  1  0  0  0  0
 14 58  1  0  0  0  0
 15 16  2  0  0  0  0
 15 17  1  0  0  0  0
 17 18  1  0  0  0  0
 18 19  1  0  0  0  0
 18 59  1  0  0  0  0
 19 20  2  0  0  0  0
 19 21  1  0  0  0  0
 21 22  1  0  0  0  0
 21 60  1  0  0  0  0
 22 23  1  0  0  0  0
 22 28  2  0  0  0  0
 23 24  2  0  0  0  0
 23 61  1  0  0  0  0
 24 25  1  0  0  0  0
 24 62  1  0  0  0  0
 25 26  1  0  0  0  0
 25 27  2  0  0  0  0
 27 28  1  0  0  0  0
 27 63  1  0  0  0  0
 28 29  1  0  0  0  0
 30 31  1  0  0  0  0
 30 64  1  0  0  0  0
 31 32  1  0  0  0  0
 33 34  1  0  0  0  0
 33 65  1  0  0  0  0
 34 35  2  0  0  0  0
 34 66  1  0  0  0  0
 35 36  1  0  0  0  0
 36 37  2  0  0  0  0
 37 38  1  0  0  0  0
 37 67  1  0  0  0  0
 38 39  1  0  0  0  0
 39 40  1  0  0  0  0
 40 41  1  0  0  0  0
 40 68  1  0  0  0  0
 40 69  1  0  0  0  0
 41 42  1  0  0  0  0
 41 70  1  0  0  0  0
 41 71  1  0  0  0  0
 42 43  1  0  0  0  0
 42 72  1  0  0  0  0
 42 73  1  0  0  0  0
 43 44  1  0  0  0  0
 43 49  1  0  0  0  0
 44 45  1  0  0  0  0
 44 74  1  0  0  0  0
 44 75  1  0  0  0  0
 45 46  1  0  0  0  0
 45 76  1  0  0  0  0
 45 77  1  0  0  0  0
 46 47  1  0  0  0  0
 46 48  1  0  0  0  0
 47 78  1  0  0  0  0
 47 79  1  0  0  0  0
 47 80  1  0  0  0  0
 48 49  1  0  0  0  0
 48 81  1  0  0  0  0
 48 82  1  0  0  0  0
 49 83  1  0  0  0  0
 49 84  1  0  0  0  0
M  END
$$$$
