CHEMBL4091741
 OpenBabel04072215383D

 47 50  0  0  0  0  0  0  0  0999 V2000
    2.8205    0.8592   -2.4126 C   0  0  0  0  0  0  0  0  0  0  0  0
    1.4172    0.5611   -1.9767 C   0  0  0  0  0  0  0  0  0  0  0  0
    0.9130   -0.7397   -2.0926 C   0  0  0  0  0  0  0  0  0  0  0  0
   -0.3760   -1.0254   -1.6579 C   0  0  0  0  0  0  0  0  0  0  0  0
   -1.1753   -0.0170   -1.1240 C   0  0  0  0  0  0  0  0  0  0  0  0
   -2.3468   -0.4129   -0.6140 F   0  0  0  0  0  0  0  0  0  0  0  0
   -0.7273    1.3112   -1.0471 C   0  0  0  0  0  0  0  0  0  0  0  0
   -1.5046    2.4131   -0.5904 N   0  0  0  0  0  0  0  0  0  0  0  0
   -2.8841    2.4380   -0.4782 C   0  0  0  0  0  0  0  0  0  0  0  0
   -3.6388    1.5179   -0.7740 O   0  0  0  0  0  0  0  0  0  0  0  0
   -3.3590    3.6789   -0.0529 N   0  0  0  0  0  0  0  0  0  0  0  0
   -4.7507    3.8554    0.1626 C   0  0  0  0  0  0  0  0  0  0  0  0
   -5.5016    2.9067    0.8586 C   0  0  0  0  0  0  0  0  0  0  0  0
   -6.8983    2.9918    0.8915 C   0  0  0  0  0  0  0  0  0  0  0  0
   -7.5854    4.0377    0.2505 C   0  0  0  0  0  0  0  0  0  0  0  0
   -9.0617    4.0437    0.1710 C   0  0  0  0  0  0  0  0  0  0  0  0
   -9.8534    3.6317    1.2699 C   0  0  0  0  0  0  0  0  0  0  0  0
  -11.2375    3.6102    1.1715 C   0  0  0  0  0  0  0  0  0  0  0  0
  -12.0037    3.1887    2.2209 O   0  0  0  0  0  0  0  0  0  0  0  0
  -11.9421    3.9754    0.0964 N   0  0  0  0  0  0  0  0  0  0  0  0
  -11.1691    4.3528   -0.9343 C   0  0  0  0  0  0  0  0  0  0  0  0
  -11.6458    4.7536   -2.1423 N   0  0  0  0  0  0  0  0  0  0  0  0
  -10.6899    5.0555   -3.0310 N   0  0  0  0  0  0  0  0  0  0  0  0
   -9.5471    4.8155   -2.3660 C   0  0  0  0  0  0  0  0  0  0  0  0
   -8.2783    4.9926   -3.1189 C   0  0  0  0  0  0  0  0  0  0  0  0
   -9.7792    4.4079   -1.0054 C   0  0  0  0  0  0  0  0  0  0  0  0
   -6.7967    5.0596   -0.3021 C   0  0  0  0  0  0  0  0  0  0  0  0
   -5.3972    4.9654   -0.3700 C   0  0  0  0  0  0  0  0  0  0  0  0
    0.5921    1.5771   -1.4537 C   0  0  0  0  0  0  0  0  0  0  0  0
    3.3270   -0.0426   -2.7766 H   0  0  0  0  0  0  0  0  0  0  0  0
    3.4025    1.2471   -1.5713 H   0  0  0  0  0  0  0  0  0  0  0  0
    2.8184    1.5912   -3.2252 H   0  0  0  0  0  0  0  0  0  0  0  0
    1.5232   -1.5422   -2.5023 H   0  0  0  0  0  0  0  0  0  0  0  0
   -0.7712   -2.0350   -1.7133 H   0  0  0  0  0  0  0  0  0  0  0  0
   -1.0210    3.2868   -0.4473 H   0  0  0  0  0  0  0  0  0  0  0  0
   -2.8729    4.4680   -0.4526 H   0  0  0  0  0  0  0  0  0  0  0  0
   -5.0127    2.0628    1.3414 H   0  0  0  0  0  0  0  0  0  0  0  0
   -7.4377    2.1892    1.3907 H   0  0  0  0  0  0  0  0  0  0  0  0
   -9.3773    3.3309    2.1970 H   0  0  0  0  0  0  0  0  0  0  0  0
  -11.4163    2.8807    2.9252 H   0  0  0  0  0  0  0  0  0  0  0  0
  -12.6179    4.8279   -2.4130 H   0  0  0  0  0  0  0  0  0  0  0  0
   -8.4630    5.0439   -4.1982 H   0  0  0  0  0  0  0  0  0  0  0  0
   -7.5947    4.1574   -2.9457 H   0  0  0  0  0  0  0  0  0  0  0  0
   -7.7919    5.9322   -2.8426 H   0  0  0  0  0  0  0  0  0  0  0  0
   -7.2713    5.9384   -0.7292 H   0  0  0  0  0  0  0  0  0  0  0  0
   -4.8465    5.7272   -0.9136 H   0  0  0  0  0  0  0  0  0  0  0  0
    0.9889    2.5877   -1.3891 H   0  0  0  0  0  0  0  0  0  0  0  0
  1  2  1  0  0  0  0
  1 30  1  0  0  0  0
  1 31  1  0  0  0  0
  1 32  1  0  0  0  0
  2  3  1  0  0  0  0
  2 29  2  0  0  0  0
  3  4  2  0  0  0  0
  3 33  1  0  0  0  0
  4  5  1  0  0  0  0
  4 34  1  0  0  0  0
  5  6  1  0  0  0  0
  5  7  2  0  0  0  0
  7  8  1  0  0  0  0
  7 29  1  0  0  0  0
  8  9  1  0  0  0  0
  8 35  1  0  0  0  0
  9 10  2  0  0  0  0
  9 11  1  0  0  0  0
 11 12  1  0  0  0  0
 11 36  1  0  0  0  0
 12 13  1  0  0  0  0
 12 28  2  0  0  0  0
 13 14  2  0  0  0  0
 13 37  1  0  0  0  0
 14 15  1  0  0  0  0
 14 38  1  0  0  0  0
 15 16  1  0  0  0  0
 15 27  2  0  0  0  0
 16 17  1  0  0  0  0
 16 26  2  0  0  0  0
 17 18  2  0  0  0  0
 17 39  1  0  0  0  0
 18 19  1  0  0  0  0
 18 20  1  0  0  0  0
 19 40  1  0  0  0  0
 20 21  2  0  0  0  0
 21 22  1  0  0  0  0
 21 26  1  0  0  0  0
 22 23  1  0  0  0  0
 22 41  1  0  0  0  0
 23 24  2  0  0  0  0
 24 25  1  0  0  0  0
 24 26  1  0  0  0  0
 25 42  1  0  0  0  0
 25 43  1  0  0  0  0
 25 44  1  0  0  0  0
 27 28  1  0  0  0  0
 27 45  1  0  0  0  0
 28 46  1  0  0  0  0
 29 47  1  0  0  0  0
M  END
$$$$
