CHEMBL1271668
 OpenBabel04072215363D

 34 36  0  0  0  0  0  0  0  0999 V2000
    1.1972   -0.2132   -0.4785 C   0  0  0  0  0  0  0  0  0  0  0  0
    2.6696   -0.0902   -0.2505 C   0  0  0  0  0  0  0  0  0  0  0  0
    3.4992   -1.1913   -0.0845 C   0  0  0  0  0  0  0  0  0  0  0  0
    4.8362   -1.1126    0.1086 N   0  0  0  0  0  0  0  0  0  0  0  0
    5.3625    0.1286    0.1445 C   0  0  0  0  0  0  0  0  0  0  0  0
    6.7062    0.1060    0.3299 O   0  0  0  0  0  0  0  0  0  0  0  0
    4.6473    1.3052    0.0093 C   0  0  0  0  0  0  0  0  0  0  0  0
    5.1965    2.6820    0.0835 C   0  0  0  0  0  0  0  0  0  0  0  0
    4.3760    3.5998    0.0636 O   0  0  0  0  0  0  0  0  0  0  0  0
    6.5712    2.8587    0.1108 N   0  0  0  0  0  0  0  0  0  0  0  0
    7.2160    4.1292    0.0601 C   0  0  0  0  0  0  0  0  0  0  0  0
    6.5614    5.2984    0.4851 C   0  0  0  0  0  0  0  0  0  0  0  0
    7.1442    6.5509    0.3059 C   0  0  0  0  0  0  0  0  0  0  0  0
    8.3680    6.6428   -0.3365 C   0  0  0  0  0  0  0  0  0  0  0  0
    9.0316    5.4826   -0.7613 C   0  0  0  0  0  0  0  0  0  0  0  0
   10.2091    5.5824   -1.5096 C   0  0  0  0  0  0  0  0  0  0  0  0
   10.8727    4.4327   -1.9083 C   0  0  0  0  0  0  0  0  0  0  0  0
   10.3561    3.2169   -1.5054 C   0  0  0  0  0  0  0  0  0  0  0  0
    9.1895    3.0746   -0.8340 N   0  0  0  0  0  0  0  0  0  0  0  0
    8.5043    4.1954   -0.4939 C   0  0  0  0  0  0  0  0  0  0  0  0
    3.2700    1.1705   -0.2006 C   0  0  0  0  0  0  0  0  0  0  0  0
    0.8702   -1.2569   -0.4487 H   0  0  0  0  0  0  0  0  0  0  0  0
    0.9336    0.1978   -1.4589 H   0  0  0  0  0  0  0  0  0  0  0  0
    0.6459    0.3338    0.2951 H   0  0  0  0  0  0  0  0  0  0  0  0
    3.1016   -2.2021   -0.0992 H   0  0  0  0  0  0  0  0  0  0  0  0
    6.8487   -0.8550    0.4035 H   0  0  0  0  0  0  0  0  0  0  0  0
    7.1748    2.0584   -0.0875 H   0  0  0  0  0  0  0  0  0  0  0  0
    5.5868    5.2599    0.9548 H   0  0  0  0  0  0  0  0  0  0  0  0
    6.6209    7.4417    0.6361 H   0  0  0  0  0  0  0  0  0  0  0  0
    8.7960    7.6266   -0.5109 H   0  0  0  0  0  0  0  0  0  0  0  0
   10.5901    6.5540   -1.8144 H   0  0  0  0  0  0  0  0  0  0  0  0
   11.7670    4.4877   -2.5184 H   0  0  0  0  0  0  0  0  0  0  0  0
   10.8747    2.2910   -1.7367 H   0  0  0  0  0  0  0  0  0  0  0  0
    2.6486    2.0591   -0.3209 H   0  0  0  0  0  0  0  0  0  0  0  0
  1  2  1  0  0  0  0
  1 22  1  0  0  0  0
  1 23  1  0  0  0  0
  1 24  1  0  0  0  0
  2  3  1  0  0  0  0
  2 21  2  0  0  0  0
  3  4  2  0  0  0  0
  3 25  1  0  0  0  0
  4  5  1  0  0  0  0
  5  6  1  0  0  0  0
  5  7  2  0  0  0  0
  6 26  1  0  0  0  0
  7  8  1  0  0  0  0
  7 21  1  0  0  0  0
  8  9  2  0  0  0  0
  8 10  1  0  0  0  0
 10 11  1  0  0  0  0
 10 27  1  0  0  0  0
 11 12  1  0  0  0  0
 11 20  2  0  0  0  0
 12 13  2  0  0  0  0
 12 28  1  0  0  0  0
 13 14  1  0  0  0  0
 13 29  1  0  0  0  0
 14 15  2  0  0  0  0
 14 30  1  0  0  0  0
 15 16  1  0  0  0  0
 15 20  1  0  0  0  0
 16 17  2  0  0  0  0
 16 31  1  0  0  0  0
 17 18  1  0  0  0  0
 17 32  1  0  0  0  0
 18 19  2  0  0  0  0
 18 33  1  0  0  0  0
 19 20  1  0  0  0  0
 21 34  1  0  0  0  0
M  END
$$$$
