CHEMBL3656063
 OpenBabel04072215373D

 54 57  0  0  0  0  0  0  0  0999 V2000
    0.3906    5.4370    3.9873 C   0  0  0  0  0  0  0  0  0  0  0  0
    1.5944    5.5611    3.2296 O   0  0  0  0  0  0  0  0  0  0  0  0
    1.4040    5.7858    1.8948 C   0  0  0  0  0  0  0  0  0  0  0  0
    0.3012    5.8794    1.3662 O   0  0  0  0  0  0  0  0  0  0  0  0
    2.6916    5.8671    1.2294 C   0  0  0  0  0  0  0  0  0  0  0  0
    3.9578    5.6974    1.7594 C   0  0  0  0  0  0  0  0  0  0  0  0
    5.0029    5.8054    0.7818 C   0  0  0  0  0  0  0  0  0  0  0  0
    6.4322    5.6166    1.0054 C   0  0  0  0  0  0  0  0  0  0  0  0
    6.8633    4.7068    1.9602 C   0  0  0  0  0  0  0  0  0  0  0  0
    8.2179    4.6632    2.2740 C   0  0  0  0  0  0  0  0  0  0  0  0
    8.7439    3.8746    3.2728 O   0  0  0  0  0  0  0  0  0  0  0  0
    7.9933    3.6604    4.4085 C   0  0  0  0  0  0  0  0  0  0  0  0
    8.0944    2.4001    4.9877 C   0  0  0  0  0  0  0  0  0  0  0  0
    7.3234    2.0818    6.1086 C   0  0  0  0  0  0  0  0  0  0  0  0
    6.4497    3.0160    6.6733 C   0  0  0  0  0  0  0  0  0  0  0  0
    5.5902    2.7305    7.7571 N   0  0  0  0  0  0  0  0  0  0  0  0
    5.5838    1.5713    8.5054 C   0  0  0  0  0  0  0  0  0  0  0  0
    6.4096    0.6706    8.4156 O   0  0  0  0  0  0  0  0  0  0  0  0
    4.4922    1.5194    9.3630 N   0  0  0  0  0  0  0  0  0  0  0  0
    4.3116    0.3930   10.2055 C   0  0  0  0  0  0  0  0  0  0  0  0
    5.3678   -0.1482   10.9473 C   0  0  0  0  0  0  0  0  0  0  0  0
    5.1858   -1.3179   11.6983 C   0  0  0  0  0  0  0  0  0  0  0  0
    6.3194   -1.9034   12.4891 C   0  0  0  0  0  0  0  0  0  0  0  0
    3.9342   -1.9485   11.6885 C   0  0  0  0  0  0  0  0  0  0  0  0
    2.8703   -1.3966   10.9719 C   0  0  0  0  0  0  0  0  0  0  0  0
    3.0593   -0.2181   10.2579 C   0  0  0  0  0  0  0  0  0  0  0  0
    2.0391    0.2942    9.5516 F   0  0  0  0  0  0  0  0  0  0  0  0
    6.3938    4.2995    6.1150 C   0  0  0  0  0  0  0  0  0  0  0  0
    7.1820    4.6286    5.0079 C   0  0  0  0  0  0  0  0  0  0  0  0
    9.1139    5.4286    1.5418 C   0  0  0  0  0  0  0  0  0  0  0  0
    8.6013    6.2700    0.5697 C   0  0  0  0  0  0  0  0  0  0  0  0
    7.2819    6.3958    0.2976 N   0  0  0  0  0  0  0  0  0  0  0  0
    4.4843    6.1244   -0.4561 C   0  0  0  0  0  0  0  0  0  0  0  0
    2.7745    6.2146   -0.4461 S   0  0  0  0  0  0  0  0  0  0  0  0
    0.6561    5.4632    5.0483 H   0  0  0  0  0  0  0  0  0  0  0  0
   -0.0864    4.4760    3.7728 H   0  0  0  0  0  0  0  0  0  0  0  0
   -0.2943    6.2667    3.7860 H   0  0  0  0  0  0  0  0  0  0  0  0
    4.1273    5.4877    2.8097 H   0  0  0  0  0  0  0  0  0  0  0  0
    6.1533    4.0662    2.4705 H   0  0  0  0  0  0  0  0  0  0  0  0
    8.7588    1.6505    4.5631 H   0  0  0  0  0  0  0  0  0  0  0  0
    7.4337    1.0782    6.5115 H   0  0  0  0  0  0  0  0  0  0  0  0
    5.0006    3.4804    8.0900 H   0  0  0  0  0  0  0  0  0  0  0  0
    3.6363    1.8944    8.9727 H   0  0  0  0  0  0  0  0  0  0  0  0
    6.3441    0.3330   10.9293 H   0  0  0  0  0  0  0  0  0  0  0  0
    7.2302   -1.3005   12.3943 H   0  0  0  0  0  0  0  0  0  0  0  0
    6.5472   -2.9133   12.1341 H   0  0  0  0  0  0  0  0  0  0  0  0
    6.0546   -1.9450   13.5507 H   0  0  0  0  0  0  0  0  0  0  0  0
    3.7877   -2.8779   12.2347 H   0  0  0  0  0  0  0  0  0  0  0  0
    1.9048   -1.8907   10.9488 H   0  0  0  0  0  0  0  0  0  0  0  0
    5.7328    5.0569    6.5286 H   0  0  0  0  0  0  0  0  0  0  0  0
    7.1301    5.6365    4.6056 H   0  0  0  0  0  0  0  0  0  0  0  0
   10.1800    5.3793    1.7324 H   0  0  0  0  0  0  0  0  0  0  0  0
    9.2584    6.8990   -0.0243 H   0  0  0  0  0  0  0  0  0  0  0  0
    5.0279    6.2886   -1.3775 H   0  0  0  0  0  0  0  0  0  0  0  0
  1  2  1  0  0  0  0
  1 35  1  0  0  0  0
  1 36  1  0  0  0  0
  1 37  1  0  0  0  0
  2  3  1  0  0  0  0
  3  4  2  0  0  0  0
  3  5  1  0  0  0  0
  5  6  2  0  0  0  0
  5 34  1  0  0  0  0
  6  7  1  0  0  0  0
  6 38  1  0  0  0  0
  7  8  1  0  0  0  0
  7 33  2  0  0  0  0
  8  9  1  0  0  0  0
  8 32  2  0  0  0  0
  9 10  2  0  0  0  0
  9 39  1  0  0  0  0
 10 11  1  0  0  0  0
 10 30  1  0  0  0  0
 11 12  1  0  0  0  0
 12 13  1  0  0  0  0
 12 29  2  0  0  0  0
 13 14  2  0  0  0  0
 13 40  1  0  0  0  0
 14 15  1  0  0  0  0
 14 41  1  0  0  0  0
 15 16  1  0  0  0  0
 15 28  2  0  0  0  0
 16 17  1  0  0  0  0
 16 42  1  0  0  0  0
 17 18  2  0  0  0  0
 17 19  1  0  0  0  0
 19 20  1  0  0  0  0
 19 43  1  0  0  0  0
 20 21  1  0  0  0  0
 20 26  2  0  0  0  0
 21 22  2  0  0  0  0
 21 44  1  0  0  0  0
 22 23  1  0  0  0  0
 22 24  1  0  0  0  0
 23 45  1  0  0  0  0
 23 46  1  0  0  0  0
 23 47  1  0  0  0  0
 24 25  2  0  0  0  0
 24 48  1  0  0  0  0
 25 26  1  0  0  0  0
 25 49  1  0  0  0  0
 26 27  1  0  0  0  0
 28 29  1  0  0  0  0
 28 50  1  0  0  0  0
 29 51  1  0  0  0  0
 30 31  2  0  0  0  0
 30 52  1  0  0  0  0
 31 32  1  0  0  0  0
 31 53  1  0  0  0  0
 33 34  1  0  0  0  0
 33 54  1  0  0  0  0
M  END
$$$$
