CHEMBL409512
 OpenBabel04072215383D

 56 60  0  0  0  0  0  0  0  0999 V2000
    4.9841    0.0615   -2.0429 C   0  0  0  0  0  0  0  0  0  0  0  0
    3.9285   -0.4657   -1.2431 O   0  0  0  0  0  0  0  0  0  0  0  0
    4.3143   -1.1342   -0.1080 C   0  0  0  0  0  0  0  0  0  0  0  0
    5.5241   -0.8692    0.5488 C   0  0  0  0  0  0  0  0  0  0  0  0
    5.9712   -1.6135    1.6307 C   0  0  0  0  0  0  0  0  0  0  0  0
    7.1985   -1.3345    2.0920 N   0  0  0  0  0  0  0  0  0  0  0  0
    7.6954   -2.0865    3.0915 C   0  0  0  0  0  0  0  0  0  0  0  0
    7.0239   -3.1507    3.6471 C   0  0  0  0  0  0  0  0  0  0  0  0
    5.7494   -3.4559    3.1660 C   0  0  0  0  0  0  0  0  0  0  0  0
    5.2198   -4.5751    3.7815 O   0  0  0  0  0  0  0  0  0  0  0  0
    4.3368   -5.4035    3.1364 C   0  0  0  0  0  0  0  0  0  0  0  0
    4.3619   -5.6861    1.7798 C   0  0  0  0  0  0  0  0  0  0  0  0
    3.2345   -6.2625    1.1832 C   0  0  0  0  0  0  0  0  0  0  0  0
    2.1264   -6.7337    1.9391 C   0  0  0  0  0  0  0  0  0  0  0  0
    0.9066   -7.2734    1.4214 C   0  0  0  0  0  0  0  0  0  0  0  0
    0.5044   -7.3139   -0.0240 C   0  0  0  0  0  0  0  0  0  0  0  0
   -0.6839   -7.1439   -0.2877 O   0  0  0  0  0  0  0  0  0  0  0  0
    1.4806   -7.6408   -0.9464 N   0  0  0  0  0  0  0  0  0  0  0  0
    1.3188   -7.7248   -2.3473 C   0  0  0  0  0  0  0  0  0  0  0  0
    0.1639   -7.3231   -3.0274 C   0  0  0  0  0  0  0  0  0  0  0  0
    0.0399   -7.5262   -4.4064 C   0  0  0  0  0  0  0  0  0  0  0  0
    1.0806   -8.1161   -5.1151 C   0  0  0  0  0  0  0  0  0  0  0  0
    0.9082   -8.4225   -6.7987 Cl  0  0  0  0  0  0  0  0  0  0  0  0
    2.2591   -8.4688   -4.4631 C   0  0  0  0  0  0  0  0  0  0  0  0
    2.3804   -8.2639   -3.0844 C   0  0  0  0  0  0  0  0  0  0  0  0
   -0.0913   -7.7379    2.3030 C   0  0  0  0  0  0  0  0  0  0  0  0
    0.0744   -7.6676    3.6793 C   0  0  0  0  0  0  0  0  0  0  0  0
    1.2262   -7.0932    4.1974 C   0  0  0  0  0  0  0  0  0  0  0  0
    2.2361   -6.6111    3.3525 C   0  0  0  0  0  0  0  0  0  0  0  0
    3.3236   -5.9383    3.9275 C   0  0  0  0  0  0  0  0  0  0  0  0
    5.1551   -2.6305    2.1640 C   0  0  0  0  0  0  0  0  0  0  0  0
    3.8501   -2.7532    1.6143 C   0  0  0  0  0  0  0  0  0  0  0  0
    3.4606   -2.0993    0.4321 C   0  0  0  0  0  0  0  0  0  0  0  0
    2.2157   -2.6152   -0.2232 C   0  0  0  0  0  0  0  0  0  0  0  0
    1.7831   -2.0245   -1.3721 N   0  0  0  0  0  0  0  0  0  0  0  0
    1.6173   -3.5899    0.2198 O   0  0  0  0  0  0  0  0  0  0  0  0
    4.5466    0.3957   -2.9879 H   0  0  0  0  0  0  0  0  0  0  0  0
    5.7302   -0.7036   -2.2734 H   0  0  0  0  0  0  0  0  0  0  0  0
    5.4419    0.9361   -1.5676 H   0  0  0  0  0  0  0  0  0  0  0  0
    6.1871   -0.0822    0.2003 H   0  0  0  0  0  0  0  0  0  0  0  0
    8.6920   -1.8138    3.4258 H   0  0  0  0  0  0  0  0  0  0  0  0
    7.4862   -3.7462    4.4274 H   0  0  0  0  0  0  0  0  0  0  0  0
    5.1724   -5.3314    1.1493 H   0  0  0  0  0  0  0  0  0  0  0  0
    3.2156   -6.2475    0.0982 H   0  0  0  0  0  0  0  0  0  0  0  0
    2.3634   -7.9649   -0.5781 H   0  0  0  0  0  0  0  0  0  0  0  0
   -0.6683   -6.8537   -2.5107 H   0  0  0  0  0  0  0  0  0  0  0  0
   -0.8782   -7.2334   -4.9095 H   0  0  0  0  0  0  0  0  0  0  0  0
    3.0785   -8.9196   -5.0153 H   0  0  0  0  0  0  0  0  0  0  0  0
    3.3052   -8.5562   -2.5946 H   0  0  0  0  0  0  0  0  0  0  0  0
   -1.0229   -8.1421    1.9082 H   0  0  0  0  0  0  0  0  0  0  0  0
   -0.7096   -8.0217    4.3432 H   0  0  0  0  0  0  0  0  0  0  0  0
    1.3179   -7.0008    5.2783 H   0  0  0  0  0  0  0  0  0  0  0  0
    3.3541   -5.7631    5.0015 H   0  0  0  0  0  0  0  0  0  0  0  0
    3.1333   -3.4338    2.0673 H   0  0  0  0  0  0  0  0  0  0  0  0
    2.2738   -1.2435   -1.7892 H   0  0  0  0  0  0  0  0  0  0  0  0
    0.9918   -2.4355   -1.8494 H   0  0  0  0  0  0  0  0  0  0  0  0
  1  2  1  0  0  0  0
  1 37  1  0  0  0  0
  1 38  1  0  0  0  0
  1 39  1  0  0  0  0
  2  3  1  0  0  0  0
  3  4  1  0  0  0  0
  3 33  2  0  0  0  0
  4  5  2  0  0  0  0
  4 40  1  0  0  0  0
  5  6  1  0  0  0  0
  5 31  1  0  0  0  0
  6  7  2  0  0  0  0
  7  8  1  0  0  0  0
  7 41  1  0  0  0  0
  8  9  2  0  0  0  0
  8 42  1  0  0  0  0
  9 10  1  0  0  0  0
  9 31  1  0  0  0  0
 10 11  1  0  0  0  0
 11 12  1  0  0  0  0
 11 30  2  0  0  0  0
 12 13  2  0  0  0  0
 12 43  1  0  0  0  0
 13 14  1  0  0  0  0
 13 44  1  0  0  0  0
 14 15  1  0  0  0  0
 14 29  2  0  0  0  0
 15 16  1  0  0  0  0
 15 26  2  0  0  0  0
 16 17  2  0  0  0  0
 16 18  1  0  0  0  0
 18 19  1  0  0  0  0
 18 45  1  0  0  0  0
 19 20  1  0  0  0  0
 19 25  2  0  0  0  0
 20 21  2  0  0  0  0
 20 46  1  0  0  0  0
 21 22  1  0  0  0  0
 21 47  1  0  0  0  0
 22 23  1  0  0  0  0
 22 24  2  0  0  0  0
 24 25  1  0  0  0  0
 24 48  1  0  0  0  0
 25 49  1  0  0  0  0
 26 27  1  0  0  0  0
 26 50  1  0  0  0  0
 27 28  2  0  0  0  0
 27 51  1  0  0  0  0
 28 29  1  0  0  0  0
 28 52  1  0  0  0  0
 29 30  1  0  0  0  0
 30 53  1  0  0  0  0
 31 32  2  0  0  0  0
 32 33  1  0  0  0  0
 32 54  1  0  0  0  0
 33 34  1  0  0  0  0
 34 35  1  0  0  0  0
 34 36  2  0  0  0  0
 35 55  1  0  0  0  0
 35 56  1  0  0  0  0
M  END
$$$$
