CHEMBL1760035
 OpenBabel04072215363D

 51 54  0  0  0  0  0  0  0  0999 V2000
    1.7370   -0.2357    0.0995 C   0  0  0  0  0  0  0  0  0  0  0  0
    3.1323   -0.1361    0.3685 O   0  0  0  0  0  0  0  0  0  0  0  0
    3.7422    1.0496    0.0531 C   0  0  0  0  0  0  0  0  0  0  0  0
    3.0333    2.2520   -0.0141 C   0  0  0  0  0  0  0  0  0  0  0  0
    3.6665    3.4851   -0.2159 C   0  0  0  0  0  0  0  0  0  0  0  0
    2.9336    4.6916   -0.2242 N   0  0  0  0  0  0  0  0  0  0  0  0
    1.7379    4.9129    0.4774 C   0  0  0  0  0  0  0  0  0  0  0  0
    0.8423    5.7358   -0.0776 N   0  0  0  0  0  0  0  0  0  0  0  0
   -0.3240    5.8816    0.5799 C   0  0  0  0  0  0  0  0  0  0  0  0
   -0.6237    5.2462    1.7625 C   0  0  0  0  0  0  0  0  0  0  0  0
    0.3561    4.4287    2.2700 C   0  0  0  0  0  0  0  0  0  0  0  0
    0.1745    3.6217    3.3965 N   0  0  0  0  0  0  0  0  0  0  0  0
   -0.4331    3.8792    4.6363 C   0  0  0  0  0  0  0  0  0  0  0  0
   -0.7886    5.1343    5.1108 C   0  0  0  0  0  0  0  0  0  0  0  0
   -1.3134    5.3791    6.3395 N   0  0  0  0  0  0  0  0  0  0  0  0
   -1.4922    4.3358    7.1693 C   0  0  0  0  0  0  0  0  0  0  0  0
   -1.9580    4.5505    8.4607 C   0  0  0  0  0  0  0  0  0  0  0  0
   -2.1300    3.4989    9.3670 C   0  0  0  0  0  0  0  0  0  0  0  0
   -1.8556    2.1946    8.9736 C   0  0  0  0  0  0  0  0  0  0  0  0
   -1.3999    1.9488    7.6802 C   0  0  0  0  0  0  0  0  0  0  0  0
   -1.1989    3.0132    6.7823 C   0  0  0  0  0  0  0  0  0  0  0  0
   -0.6784    2.8051    5.4960 C   0  0  0  0  0  0  0  0  0  0  0  0
    1.5256    4.2644    1.6363 N   0  0  0  0  0  0  0  0  0  0  0  0
    5.0433    3.4982   -0.4453 C   0  0  0  0  0  0  0  0  0  0  0  0
    5.7842    2.3112   -0.3600 C   0  0  0  0  0  0  0  0  0  0  0  0
    7.1468    2.2628   -0.5549 O   0  0  0  0  0  0  0  0  0  0  0  0
    7.8764    3.4097   -0.1374 C   0  0  0  0  0  0  0  0  0  0  0  0
    5.1388    1.0795   -0.1091 C   0  0  0  0  0  0  0  0  0  0  0  0
    5.9828   -0.0012    0.0206 O   0  0  0  0  0  0  0  0  0  0  0  0
    5.4845   -1.2661   -0.3896 C   0  0  0  0  0  0  0  0  0  0  0  0
    1.4260   -1.2605    0.3212 H   0  0  0  0  0  0  0  0  0  0  0  0
    1.5297   -0.0400   -0.9581 H   0  0  0  0  0  0  0  0  0  0  0  0
    1.1495    0.4228    0.7476 H   0  0  0  0  0  0  0  0  0  0  0  0
    1.9599    2.2554    0.1304 H   0  0  0  0  0  0  0  0  0  0  0  0
    2.8218    5.0922   -1.1484 H   0  0  0  0  0  0  0  0  0  0  0  0
   -1.0493    6.5299    0.0970 H   0  0  0  0  0  0  0  0  0  0  0  0
   -1.5912    5.3547    2.2315 H   0  0  0  0  0  0  0  0  0  0  0  0
    1.0389    3.0928    3.5148 H   0  0  0  0  0  0  0  0  0  0  0  0
   -0.6218    6.0316    4.5234 H   0  0  0  0  0  0  0  0  0  0  0  0
   -2.1755    5.5681    8.7762 H   0  0  0  0  0  0  0  0  0  0  0  0
   -2.4720    3.7052   10.3782 H   0  0  0  0  0  0  0  0  0  0  0  0
   -1.9853    1.3728    9.6734 H   0  0  0  0  0  0  0  0  0  0  0  0
   -1.1831    0.9256    7.3817 H   0  0  0  0  0  0  0  0  0  0  0  0
   -0.4409    1.7953    5.1686 H   0  0  0  0  0  0  0  0  0  0  0  0
    5.5294    4.4448   -0.6573 H   0  0  0  0  0  0  0  0  0  0  0  0
    8.9271    3.1188   -0.0394 H   0  0  0  0  0  0  0  0  0  0  0  0
    7.5413    3.7766    0.8394 H   0  0  0  0  0  0  0  0  0  0  0  0
    7.8183    4.1978   -0.8940 H   0  0  0  0  0  0  0  0  0  0  0  0
    6.3436   -1.9299   -0.5282 H   0  0  0  0  0  0  0  0  0  0  0  0
    4.9540   -1.2057   -1.3459 H   0  0  0  0  0  0  0  0  0  0  0  0
    4.8640   -1.7187    0.3892 H   0  0  0  0  0  0  0  0  0  0  0  0
  1  2  1  0  0  0  0
  1 31  1  0  0  0  0
  1 32  1  0  0  0  0
  1 33  1  0  0  0  0
  2  3  1  0  0  0  0
  3  4  1  0  0  0  0
  3 28  2  0  0  0  0
  4  5  2  0  0  0  0
  4 34  1  0  0  0  0
  5  6  1  0  0  0  0
  5 24  1  0  0  0  0
  6  7  1  0  0  0  0
  6 35  1  0  0  0  0
  7  8  1  0  0  0  0
  7 23  2  0  0  0  0
  8  9  2  0  0  0  0
  9 10  1  0  0  0  0
  9 36  1  0  0  0  0
 10 11  2  0  0  0  0
 10 37  1  0  0  0  0
 11 12  1  0  0  0  0
 11 23  1  0  0  0  0
 12 13  1  0  0  0  0
 12 38  1  0  0  0  0
 13 14  1  0  0  0  0
 13 22  2  0  0  0  0
 14 15  2  0  0  0  0
 14 39  1  0  0  0  0
 15 16  1  0  0  0  0
 16 17  1  0  0  0  0
 16 21  2  0  0  0  0
 17 18  2  0  0  0  0
 17 40  1  0  0  0  0
 18 19  1  0  0  0  0
 18 41  1  0  0  0  0
 19 20  2  0  0  0  0
 19 42  1  0  0  0  0
 20 21  1  0  0  0  0
 20 43  1  0  0  0  0
 21 22  1  0  0  0  0
 22 44  1  0  0  0  0
 24 25  2  0  0  0  0
 24 45  1  0  0  0  0
 25 26  1  0  0  0  0
 25 28  1  0  0  0  0
 26 27  1  0  0  0  0
 27 46  1  0  0  0  0
 27 47  1  0  0  0  0
 27 48  1  0  0  0  0
 28 29  1  0  0  0  0
 29 30  1  0  0  0  0
 30 49  1  0  0  0  0
 30 50  1  0  0  0  0
 30 51  1  0  0  0  0
M  END
$$$$
