CHEMBL3974664
 OpenBabel04072215373D

 54 58  0  0  1  0  0  0  0  0999 V2000
    0.8163    0.3893   -0.1990 C   0  0  0  0  0  0  0  0  0  0  0  0
    1.8771   -0.2121   -0.9343 O   0  0  0  0  0  0  0  0  0  0  0  0
    2.7290    0.6959   -1.4937 C   0  0  0  0  0  0  0  0  0  0  0  0
    2.6284    2.0348   -1.3962 C   0  0  0  0  0  0  0  0  0  0  0  0
    3.5901    2.8739   -1.9499 C   0  0  0  0  0  0  0  0  0  0  0  0
    3.5498    4.2295   -1.7923 O   0  0  0  0  0  0  0  0  0  0  0  0
    2.4445    4.6928   -1.0180 C   0  0  0  0  0  0  0  0  0  0  0  0
    4.6613    2.3531   -2.6767 C   0  0  0  0  0  0  0  0  0  0  0  0
    4.8998    0.9842   -2.7076 C   0  0  0  0  0  0  0  0  0  0  0  0
    6.0834    0.4890   -3.3762 N   0  0  0  0  0  0  0  0  0  0  0  0
    6.7119   -0.7815   -2.8810 C   0  0  0  0  0  0  0  0  0  0  0  0
    7.7646   -0.6516   -1.8215 C   0  0  3  0  0  0  0  0  0  0  0  0
    9.0876    0.0666   -1.8179 C   0  0  0  0  0  0  0  0  0  0  0  0
    9.1128   -1.2306   -2.2992 O   0  0  0  0  0  0  0  0  0  0  0  0
    7.0103    1.3604   -4.0985 C   0  0  0  0  0  0  0  0  0  0  0  0
    7.6433    0.7658   -5.1437 C   0  0  0  0  0  0  0  0  0  0  0  0
    8.6067    1.4737   -5.7725 C   0  0  0  0  0  0  0  0  0  0  0  0
    8.9960    2.7241   -5.4409 C   0  0  0  0  0  0  0  0  0  0  0  0
   10.2617    2.5398   -5.4733 N   0  0  0  0  0  0  0  0  0  0  0  0
   10.8857    2.8769   -6.5410 C   0  0  0  0  0  0  0  0  0  0  0  0
   11.2130    4.1196   -6.6072 C   0  0  0  0  0  0  0  0  0  0  0  0
   12.4502    3.6490   -7.9274 C   0  0  0  0  0  0  0  0  0  0  0  0
   13.3633    2.3587   -8.3152 C   0  0  0  0  0  0  0  0  0  0  0  0
   13.9899    2.3340   -9.5381 N   0  0  0  0  0  0  0  0  0  0  0  0
   13.5403    3.4246  -10.1750 N   0  0  0  0  0  0  0  0  0  0  0  0
   13.9565    3.7101  -11.5920 C   0  0  0  0  0  0  0  0  0  0  0  0
   12.6209    4.1401   -9.2924 C   0  0  0  0  0  0  0  0  0  0  0  0
    9.8232    4.6369   -5.6761 N   0  0  0  0  0  0  0  0  0  0  0  0
    8.6095    3.6966   -4.7141 C   0  0  0  0  0  0  0  0  0  0  0  0
    7.4475    2.7813   -3.7993 C   0  0  0  0  0  0  0  0  0  0  0  0
    3.8833    0.2381   -2.0701 C   0  0  0  0  0  0  0  0  0  0  0  0
    0.2358   -0.3984    0.2870 H   0  0  0  0  0  0  0  0  0  0  0  0
    0.1589    0.9391   -0.8782 H   0  0  0  0  0  0  0  0  0  0  0  0
    1.1766    1.0493    0.5940 H   0  0  0  0  0  0  0  0  0  0  0  0
    1.7952    2.4068   -0.8437 H   0  0  0  0  0  0  0  0  0  0  0  0
    2.5114    5.7762   -0.9589 H   0  0  0  0  0  0  0  0  0  0  0  0
    2.4678    4.2946    0.0068 H   0  0  0  0  0  0  0  0  0  0  0  0
    1.4932    4.4369   -1.5028 H   0  0  0  0  0  0  0  0  0  0  0  0
    5.3422    3.0287   -3.1813 H   0  0  0  0  0  0  0  0  0  0  0  0
    7.1828   -1.3509   -3.7045 H   0  0  0  0  0  0  0  0  0  0  0  0
    5.9295   -1.3814   -2.4346 H   0  0  0  0  0  0  0  0  0  0  0  0
    7.3025   -0.9304   -0.8581 H   0  0  0  0  0  0  0  0  0  0  0  0
    9.5786    0.2261   -0.8713 H   0  0  0  0  0  0  0  0  0  0  0  0
    9.3471    0.7653   -2.5764 H   0  0  0  0  0  0  0  0  0  0  0  0
    7.5811   -0.2721   -5.4258 H   0  0  0  0  0  0  0  0  0  0  0  0
    9.2617    0.9548   -6.4758 H   0  0  0  0  0  0  0  0  0  0  0  0
   11.0398    2.0320   -7.1834 H   0  0  0  0  0  0  0  0  0  0  0  0
   13.6453    1.4507   -7.7720 H   0  0  0  0  0  0  0  0  0  0  0  0
   14.7529    3.0385  -11.9859 H   0  0  0  0  0  0  0  0  0  0  0  0
   14.3435    4.7354  -11.6922 H   0  0  0  0  0  0  0  0  0  0  0  0
   13.0986    3.5968  -12.2705 H   0  0  0  0  0  0  0  0  0  0  0  0
   12.2111    4.9847   -9.7916 H   0  0  0  0  0  0  0  0  0  0  0  0
    6.9953    3.0738   -2.8465 H   0  0  0  0  0  0  0  0  0  0  0  0
    3.8340   -0.8131   -1.9470 H   0  0  0  0  0  0  0  0  0  0  0  0
  1  2  1  0  0  0  0
  1 32  1  0  0  0  0
  1 33  1  0  0  0  0
  1 34  1  0  0  0  0
  2  3  1  0  0  0  0
  3  4  1  0  0  0  0
  3 31  2  0  0  0  0
  4  5  2  0  0  0  0
  4 35  1  0  0  0  0
  5  6  1  0  0  0  0
  5  8  1  0  0  0  0
  6  7  1  0  0  0  0
  7 36  1  0  0  0  0
  7 37  1  0  0  0  0
  7 38  1  0  0  0  0
  8  9  2  0  0  0  0
  8 39  1  0  0  0  0
  9 10  1  0  0  0  0
  9 31  1  0  0  0  0
 10 11  1  0  0  0  0
 10 15  1  0  0  0  0
 11 12  1  0  0  0  0
 11 40  1  0  0  0  0
 11 41  1  0  0  0  0
 12 13  1  0  0  0  0
 12 14  1  0  0  0  0
 12 42  1  0  0  0  0
 13 14  1  0  0  0  0
 13 43  1  0  0  0  0
 13 44  1  0  0  0  0
 15 16  1  0  0  0  0
 15 30  2  0  0  0  0
 16 17  2  0  0  0  0
 16 45  1  0  0  0  0
 17 18  1  0  0  0  0
 17 46  1  0  0  0  0
 18 19  1  0  0  0  0
 18 29  2  0  0  0  0
 19 20  2  0  0  0  0
 20 21  1  0  0  0  0
 20 47  1  0  0  0  0
 21 22  1  0  0  0  0
 21 28  2  0  0  0  0
 22 23  1  0  0  0  0
 22 27  2  0  0  0  0
 23 24  2  0  0  0  0
 23 48  1  0  0  0  0
 24 25  1  0  0  0  0
 25 26  1  0  0  0  0
 25 27  1  0  0  0  0
 26 49  1  0  0  0  0
 26 50  1  0  0  0  0
 26 51  1  0  0  0  0
 27 52  1  0  0  0  0
 28 29  1  0  0  0  0
 29 30  1  0  0  0  0
 30 53  1  0  0  0  0
 31 54  1  0  0  0  0
M  END
$$$$
