CHEMBL491502
 OpenBabel04072215383D

 46 49  0  0  0  0  0  0  0  0999 V2000
    0.8716    0.4663   -2.0744 F   0  0  0  0  0  0  0  0  0  0  0  0
    1.7043    1.4315   -1.6258 C   0  0  0  0  0  0  0  0  0  0  0  0
    1.6081    2.4856   -2.4649 F   0  0  0  0  0  0  0  0  0  0  0  0
    1.2790    1.8239   -0.4046 F   0  0  0  0  0  0  0  0  0  0  0  0
    3.0707    1.0358   -1.5327 O   0  0  0  0  0  0  0  0  0  0  0  0
    3.3819   -0.1926   -2.0356 C   0  0  0  0  0  0  0  0  0  0  0  0
    2.7113   -1.3577   -1.6618 C   0  0  0  0  0  0  0  0  0  0  0  0
    3.0850   -2.5818   -2.2098 C   0  0  0  0  0  0  0  0  0  0  0  0
    4.1462   -2.6492   -3.1131 C   0  0  0  0  0  0  0  0  0  0  0  0
    4.8569   -1.4885   -3.4584 C   0  0  0  0  0  0  0  0  0  0  0  0
    5.9221   -1.5510   -4.3948 N   0  0  0  0  0  0  0  0  0  0  0  0
    6.3327   -2.6376   -5.1269 C   0  0  0  0  0  0  0  0  0  0  0  0
    7.3139   -2.1644   -5.9636 C   0  0  0  0  0  0  0  0  0  0  0  0
    7.9938   -2.9436   -6.9923 C   0  0  0  0  0  0  0  0  0  0  0  0
    7.2899   -4.0175   -7.5841 C   0  0  0  0  0  0  0  0  0  0  0  0
    7.8751   -4.8225   -8.5571 C   0  0  0  0  0  0  0  0  0  0  0  0
    9.1738   -4.5628   -8.9602 C   0  0  0  0  0  0  0  0  0  0  0  0
    9.8784   -3.4956   -8.3978 C   0  0  0  0  0  0  0  0  0  0  0  0
    9.3102   -2.6470   -7.4265 C   0  0  0  0  0  0  0  0  0  0  0  0
   10.0784   -1.6478   -6.7944 N   0  0  0  0  0  0  0  0  0  0  0  0
   11.1354   -0.9589   -7.5353 C   0  0  0  0  0  0  0  0  0  0  0  0
   12.4652   -1.6789   -7.4609 C   0  0  0  0  0  0  0  0  0  0  0  0
   13.3801   -1.5772   -8.5137 C   0  0  0  0  0  0  0  0  0  0  0  0
   14.5782   -2.2711   -8.4251 C   0  0  0  0  0  0  0  0  0  0  0  0
   14.9268   -3.0399   -7.3723 N   0  0  0  0  0  0  0  0  0  0  0  0
   14.0407   -3.1082   -6.3559 C   0  0  0  0  0  0  0  0  0  0  0  0
   12.8240   -2.4464   -6.3480 C   0  0  0  0  0  0  0  0  0  0  0  0
    7.5300   -0.8411   -5.6852 N   0  0  0  0  0  0  0  0  0  0  0  0
    6.6758   -0.4745   -4.7332 N   0  0  0  0  0  0  0  0  0  0  0  0
    4.4833   -0.2600   -2.8955 C   0  0  0  0  0  0  0  0  0  0  0  0
    1.8925   -1.3323   -0.9474 H   0  0  0  0  0  0  0  0  0  0  0  0
    2.5463   -3.4863   -1.9358 H   0  0  0  0  0  0  0  0  0  0  0  0
    4.3954   -3.6259   -3.5159 H   0  0  0  0  0  0  0  0  0  0  0  0
    5.8897   -3.6134   -5.0275 H   0  0  0  0  0  0  0  0  0  0  0  0
    6.2654   -4.2395   -7.2950 H   0  0  0  0  0  0  0  0  0  0  0  0
    7.3220   -5.6524   -8.9872 H   0  0  0  0  0  0  0  0  0  0  0  0
    9.6533   -5.1949   -9.7028 H   0  0  0  0  0  0  0  0  0  0  0  0
   10.9036   -3.3607   -8.7275 H   0  0  0  0  0  0  0  0  0  0  0  0
    9.4759   -0.9851   -6.3005 H   0  0  0  0  0  0  0  0  0  0  0  0
   11.2748    0.0361   -7.0964 H   0  0  0  0  0  0  0  0  0  0  0  0
   10.8308   -0.8030   -8.5785 H   0  0  0  0  0  0  0  0  0  0  0  0
   13.1653   -0.9830   -9.3963 H   0  0  0  0  0  0  0  0  0  0  0  0
   15.3090   -2.2309   -9.2277 H   0  0  0  0  0  0  0  0  0  0  0  0
   14.3379   -3.7354   -5.5206 H   0  0  0  0  0  0  0  0  0  0  0  0
   12.1529   -2.5531   -5.5011 H   0  0  0  0  0  0  0  0  0  0  0  0
    5.0241    0.6542   -3.1365 H   0  0  0  0  0  0  0  0  0  0  0  0
  1  2  1  0  0  0  0
  2  3  1  0  0  0  0
  2  4  1  0  0  0  0
  2  5  1  0  0  0  0
  5  6  1  0  0  0  0
  6  7  1  0  0  0  0
  6 30  2  0  0  0  0
  7  8  2  0  0  0  0
  7 31  1  0  0  0  0
  8  9  1  0  0  0  0
  8 32  1  0  0  0  0
  9 10  2  0  0  0  0
  9 33  1  0  0  0  0
 10 11  1  0  0  0  0
 10 30  1  0  0  0  0
 11 12  1  0  0  0  0
 11 29  1  0  0  0  0
 12 13  2  0  0  0  0
 12 34  1  0  0  0  0
 13 14  1  0  0  0  0
 13 28  1  0  0  0  0
 14 15  1  0  0  0  0
 14 19  2  0  0  0  0
 15 16  2  0  0  0  0
 15 35  1  0  0  0  0
 16 17  1  0  0  0  0
 16 36  1  0  0  0  0
 17 18  2  0  0  0  0
 17 37  1  0  0  0  0
 18 19  1  0  0  0  0
 18 38  1  0  0  0  0
 19 20  1  0  0  0  0
 20 21  1  0  0  0  0
 20 39  1  0  0  0  0
 21 22  1  0  0  0  0
 21 40  1  0  0  0  0
 21 41  1  0  0  0  0
 22 23  1  0  0  0  0
 22 27  2  0  0  0  0
 23 24  2  0  0  0  0
 23 42  1  0  0  0  0
 24 25  1  0  0  0  0
 24 43  1  0  0  0  0
 25 26  2  0  0  0  0
 26 27  1  0  0  0  0
 26 44  1  0  0  0  0
 27 45  1  0  0  0  0
 28 29  2  0  0  0  0
 30 46  1  0  0  0  0
M  END
$$$$
