CHEMBL1976220
 OpenBabel04072215363D

 42 45  0  0  0  0  0  0  0  0999 V2000
    1.1192   -0.2873   -1.6999 N   0  0  0  0  0  0  0  0  0  0  0  0
    2.4796   -0.2988   -1.4128 C   0  0  0  0  0  0  0  0  0  0  0  0
    3.1429    0.7907   -1.8618 N   0  0  0  0  0  0  0  0  0  0  0  0
    4.4504    0.9409   -1.6038 C   0  0  0  0  0  0  0  0  0  0  0  0
    5.2009    0.0396   -0.8886 C   0  0  0  0  0  0  0  0  0  0  0  0
    4.5274   -1.1023   -0.4415 C   0  0  0  0  0  0  0  0  0  0  0  0
    5.2428   -2.3743    0.4627 S   0  0  0  0  0  0  0  0  0  0  0  0
    3.7860   -3.2351    0.5248 C   0  0  0  0  0  0  0  0  0  0  0  0
    2.7321   -2.5888   -0.0992 C   0  0  0  0  0  0  0  0  0  0  0  0
    1.4006   -3.2125   -0.0505 C   0  0  0  0  0  0  0  0  0  0  0  0
    0.9732   -3.8317    1.1301 C   0  0  0  0  0  0  0  0  0  0  0  0
   -0.2938   -4.4081    1.2249 C   0  0  0  0  0  0  0  0  0  0  0  0
   -1.1949   -4.3363    0.1642 C   0  0  0  0  0  0  0  0  0  0  0  0
   -2.5093   -4.8413    0.2621 N   0  0  0  0  0  0  0  0  0  0  0  0
   -3.1724   -5.0283    1.4681 C   0  0  0  0  0  0  0  0  0  0  0  0
   -2.7764   -4.6160    2.5528 O   0  0  0  0  0  0  0  0  0  0  0  0
   -4.3274   -5.7756    1.3040 N   0  0  0  0  0  0  0  0  0  0  0  0
   -5.1994   -6.0449    2.3839 C   0  0  0  0  0  0  0  0  0  0  0  0
   -5.4682   -5.0847    3.3683 C   0  0  0  0  0  0  0  0  0  0  0  0
   -6.3071   -5.3803    4.4433 C   0  0  0  0  0  0  0  0  0  0  0  0
   -6.8816   -6.6456    4.5425 C   0  0  0  0  0  0  0  0  0  0  0  0
   -6.6166   -7.6012    3.5616 C   0  0  0  0  0  0  0  0  0  0  0  0
   -7.3512   -9.3364    3.7318 Br  0  0  0  0  0  0  0  0  0  0  0  0
   -5.7980   -7.3029    2.4700 C   0  0  0  0  0  0  0  0  0  0  0  0
   -0.7652   -3.7649   -1.0375 C   0  0  0  0  0  0  0  0  0  0  0  0
    0.5310   -3.2270   -1.1480 C   0  0  0  0  0  0  0  0  0  0  0  0
    3.1622   -1.3171   -0.6891 C   0  0  0  0  0  0  0  0  0  0  0  0
    0.8740    0.6436   -2.0225 H   0  0  0  0  0  0  0  0  0  0  0  0
    0.5543   -0.6315   -0.9337 H   0  0  0  0  0  0  0  0  0  0  0  0
    4.8985    1.8492   -1.9969 H   0  0  0  0  0  0  0  0  0  0  0  0
    6.2521    0.2041   -0.6862 H   0  0  0  0  0  0  0  0  0  0  0  0
    3.7722   -4.1862    1.0405 H   0  0  0  0  0  0  0  0  0  0  0  0
    1.6123   -3.8766    2.0095 H   0  0  0  0  0  0  0  0  0  0  0  0
   -0.5497   -4.9072    2.1557 H   0  0  0  0  0  0  0  0  0  0  0  0
   -3.0983   -4.7787   -0.5524 H   0  0  0  0  0  0  0  0  0  0  0  0
   -4.2746   -6.4696    0.5723 H   0  0  0  0  0  0  0  0  0  0  0  0
   -5.0280   -4.0911    3.3117 H   0  0  0  0  0  0  0  0  0  0  0  0
   -6.5002   -4.6282    5.2037 H   0  0  0  0  0  0  0  0  0  0  0  0
   -7.5155   -6.8807    5.3927 H   0  0  0  0  0  0  0  0  0  0  0  0
   -5.5889   -8.0673    1.7280 H   0  0  0  0  0  0  0  0  0  0  0  0
   -1.4293   -3.7007   -1.8952 H   0  0  0  0  0  0  0  0  0  0  0  0
    0.8381   -2.8026   -2.1024 H   0  0  0  0  0  0  0  0  0  0  0  0
  1  2  1  0  0  0  0
  1 28  1  0  0  0  0
  1 29  1  0  0  0  0
  2  3  1  0  0  0  0
  2 27  2  0  0  0  0
  3  4  2  0  0  0  0
  4  5  1  0  0  0  0
  4 30  1  0  0  0  0
  5  6  2  0  0  0  0
  5 31  1  0  0  0  0
  6  7  1  0  0  0  0
  6 27  1  0  0  0  0
  7  8  1  0  0  0  0
  8  9  2  0  0  0  0
  8 32  1  0  0  0  0
  9 10  1  0  0  0  0
  9 27  1  0  0  0  0
 10 11  1  0  0  0  0
 10 26  2  0  0  0  0
 11 12  2  0  0  0  0
 11 33  1  0  0  0  0
 12 13  1  0  0  0  0
 12 34  1  0  0  0  0
 13 14  1  0  0  0  0
 13 25  2  0  0  0  0
 14 15  1  0  0  0  0
 14 35  1  0  0  0  0
 15 16  2  0  0  0  0
 15 17  1  0  0  0  0
 17 18  1  0  0  0  0
 17 36  1  0  0  0  0
 18 19  1  0  0  0  0
 18 24  2  0  0  0  0
 19 20  2  0  0  0  0
 19 37  1  0  0  0  0
 20 21  1  0  0  0  0
 20 38  1  0  0  0  0
 21 22  2  0  0  0  0
 21 39  1  0  0  0  0
 22 23  1  0  0  0  0
 22 24  1  0  0  0  0
 24 40  1  0  0  0  0
 25 26  1  0  0  0  0
 25 41  1  0  0  0  0
 26 42  1  0  0  0  0
M  END
$$$$
