CHEMBL4225895
 OpenBabel04072215383D

 66 69  0  0  0  0  0  0  0  0999 V2000
   -4.2271   -3.6915    6.3348 C   0  0  0  0  0  0  0  0  0  0  0  0
   -3.0494   -3.4891    5.4284 C   0  0  0  0  0  0  0  0  0  0  0  0
   -1.8958   -2.8527    5.8818 C   0  0  0  0  0  0  0  0  0  0  0  0
   -0.8063   -2.7001    5.0287 C   0  0  0  0  0  0  0  0  0  0  0  0
   -0.8592   -3.1847    3.7083 C   0  0  0  0  0  0  0  0  0  0  0  0
    0.3326   -3.0138    2.8446 C   0  0  0  0  0  0  0  0  0  0  0  0
    0.2466   -2.7732    1.6528 O   0  0  0  0  0  0  0  0  0  0  0  0
    1.5102   -3.1559    3.4928 O   0  0  0  0  0  0  0  0  0  0  0  0
   -2.0523   -3.7490    3.1971 C   0  0  0  0  0  0  0  0  0  0  0  0
   -2.1687   -4.1842    1.8343 N   0  0  0  0  0  0  0  0  0  0  0  0
   -3.4161   -4.3597    1.2468 C   0  0  0  0  0  0  0  0  0  0  0  0
   -4.0606   -3.5361    0.4042 C   0  0  0  0  0  0  0  0  0  0  0  0
   -5.4661   -3.8344   -0.0184 C   0  0  0  0  0  0  0  0  0  0  0  0
   -6.1081   -4.7572    0.4736 O   0  0  0  0  0  0  0  0  0  0  0  0
   -6.1071   -2.9309   -1.0230 C   0  0  0  0  0  0  0  0  0  0  0  0
   -5.3651   -2.2871   -2.0185 C   0  0  0  0  0  0  0  0  0  0  0  0
   -5.9976   -1.4555   -2.9513 C   0  0  0  0  0  0  0  0  0  0  0  0
   -7.3743   -1.2390   -2.8917 C   0  0  0  0  0  0  0  0  0  0  0  0
   -8.0173   -0.3028   -3.7226 N   0  0  0  0  0  0  0  0  0  0  0  0
   -7.6444    0.1768   -4.9658 C   0  0  0  0  0  0  0  0  0  0  0  0
   -7.0428   -0.7331   -6.2288 S   0  0  0  0  0  0  0  0  0  0  0  0
   -7.9721    1.5039   -5.1740 N   0  0  0  0  0  0  0  0  0  0  0  0
   -7.9123    2.5070   -4.1845 C   0  0  0  0  0  0  0  0  0  0  0  0
   -7.0521    2.3724   -3.0866 C   0  0  0  0  0  0  0  0  0  0  0  0
   -7.1231    3.2516   -2.0131 C   0  0  0  0  0  0  0  0  0  0  0  0
   -8.0419    4.2980   -2.0564 C   0  0  0  0  0  0  0  0  0  0  0  0
   -8.3266    5.2453   -0.5717 S   0  0  0  0  0  0  0  0  0  0  0  0
   -9.6518    5.8233   -0.6655 O   0  0  0  0  0  0  0  0  0  0  0  0
   -7.9727    4.3896    0.5426 O   0  0  0  0  0  0  0  0  0  0  0  0
   -7.1703    6.4644   -0.6249 N   0  0  0  0  0  0  0  0  0  0  0  0
   -7.2697    7.3509   -1.7134 C   0  0  0  0  0  0  0  0  0  0  0  0
   -8.1735    8.3963   -1.7316 C   0  0  0  0  0  0  0  0  0  0  0  0
   -8.1865    9.2180   -2.8548 C   0  0  0  0  0  0  0  0  0  0  0  0
   -7.3251    8.9374   -3.9118 C   0  0  0  0  0  0  0  0  0  0  0  0
   -6.4816    7.8417   -3.7983 C   0  0  0  0  0  0  0  0  0  0  0  0
   -6.4295    7.0391   -2.7124 N   0  0  0  0  0  0  0  0  0  0  0  0
   -8.8267    4.5097   -3.1983 C   0  0  0  0  0  0  0  0  0  0  0  0
   -8.7365    3.6269   -4.2824 C   0  0  0  0  0  0  0  0  0  0  0  0
   -8.1200   -1.8667   -1.8887 C   0  0  0  0  0  0  0  0  0  0  0  0
   -7.4951   -2.7331   -0.9784 C   0  0  0  0  0  0  0  0  0  0  0  0
   -3.1133   -3.9391    4.1008 C   0  0  0  0  0  0  0  0  0  0  0  0
   -4.0609   -3.2333    7.3150 H   0  0  0  0  0  0  0  0  0  0  0  0
   -4.4023   -4.7613    6.4851 H   0  0  0  0  0  0  0  0  0  0  0  0
   -5.1219   -3.2354    5.8991 H   0  0  0  0  0  0  0  0  0  0  0  0
   -1.8413   -2.4638    6.8958 H   0  0  0  0  0  0  0  0  0  0  0  0
    0.0675   -2.1677    5.3967 H   0  0  0  0  0  0  0  0  0  0  0  0
    1.4460   -3.5270    4.3933 H   0  0  0  0  0  0  0  0  0  0  0  0
   -1.5264   -3.6203    1.2599 H   0  0  0  0  0  0  0  0  0  0  0  0
   -3.8913   -5.2805    1.5867 H   0  0  0  0  0  0  0  0  0  0  0  0
   -3.6152   -2.5974    0.1068 H   0  0  0  0  0  0  0  0  0  0  0  0
   -4.2910   -2.4234   -2.0994 H   0  0  0  0  0  0  0  0  0  0  0  0
   -5.3828   -0.9360   -3.6811 H   0  0  0  0  0  0  0  0  0  0  0  0
   -8.8846    0.0886   -3.3720 H   0  0  0  0  0  0  0  0  0  0  0  0
   -8.2060    1.7722   -6.1241 H   0  0  0  0  0  0  0  0  0  0  0  0
   -6.3199    1.5698   -3.0492 H   0  0  0  0  0  0  0  0  0  0  0  0
   -6.4939    3.0807   -1.1432 H   0  0  0  0  0  0  0  0  0  0  0  0
   -6.2362    6.0627   -0.5862 H   0  0  0  0  0  0  0  0  0  0  0  0
   -8.8350    8.5794   -0.8909 H   0  0  0  0  0  0  0  0  0  0  0  0
   -8.8640   10.0671   -2.9023 H   0  0  0  0  0  0  0  0  0  0  0  0
   -7.3144    9.5563   -4.8003 H   0  0  0  0  0  0  0  0  0  0  0  0
   -5.8019    7.5770   -4.6029 H   0  0  0  0  0  0  0  0  0  0  0  0
   -9.5372    5.3324   -3.2329 H   0  0  0  0  0  0  0  0  0  0  0  0
   -9.3777    3.7772   -5.1470 H   0  0  0  0  0  0  0  0  0  0  0  0
   -9.1944   -1.7114   -1.8160 H   0  0  0  0  0  0  0  0  0  0  0  0
   -8.0976   -3.2423   -0.2277 H   0  0  0  0  0  0  0  0  0  0  0  0
   -4.0289   -4.4261    3.7686 H   0  0  0  0  0  0  0  0  0  0  0  0
  1  2  1  0  0  0  0
  1 42  1  0  0  0  0
  1 43  1  0  0  0  0
  1 44  1  0  0  0  0
  2  3  1  0  0  0  0
  2 41  2  0  0  0  0
  3  4  2  0  0  0  0
  3 45  1  0  0  0  0
  4  5  1  0  0  0  0
  4 46  1  0  0  0  0
  5  6  1  0  0  0  0
  5  9  2  0  0  0  0
  6  7  2  0  0  0  0
  6  8  1  0  0  0  0
  8 47  1  0  0  0  0
  9 10  1  0  0  0  0
  9 41  1  0  0  0  0
 10 11  1  0  0  0  0
 10 48  1  0  0  0  0
 11 12  2  0  0  0  0
 11 49  1  0  0  0  0
 12 13  1  0  0  0  0
 12 50  1  0  0  0  0
 13 14  2  0  0  0  0
 13 15  1  0  0  0  0
 15 16  1  0  0  0  0
 15 40  2  0  0  0  0
 16 17  2  0  0  0  0
 16 51  1  0  0  0  0
 17 18  1  0  0  0  0
 17 52  1  0  0  0  0
 18 19  1  0  0  0  0
 18 39  2  0  0  0  0
 19 20  1  0  0  0  0
 19 53  1  0  0  0  0
 20 21  2  0  0  0  0
 20 22  1  0  0  0  0
 22 23  1  0  0  0  0
 22 54  1  0  0  0  0
 23 24  1  0  0  0  0
 23 38  2  0  0  0  0
 24 25  2  0  0  0  0
 24 55  1  0  0  0  0
 25 26  1  0  0  0  0
 25 56  1  0  0  0  0
 26 27  1  0  0  0  0
 26 37  2  0  0  0  0
 27 28  2  0  0  0  0
 27 29  2  0  0  0  0
 27 30  1  0  0  0  0
 30 31  1  0  0  0  0
 30 57  1  0  0  0  0
 31 32  1  0  0  0  0
 31 36  2  0  0  0  0
 32 33  2  0  0  0  0
 32 58  1  0  0  0  0
 33 34  1  0  0  0  0
 33 59  1  0  0  0  0
 34 35  2  0  0  0  0
 34 60  1  0  0  0  0
 35 36  1  0  0  0  0
 35 61  1  0  0  0  0
 37 38  1  0  0  0  0
 37 62  1  0  0  0  0
 38 63  1  0  0  0  0
 39 40  1  0  0  0  0
 39 64  1  0  0  0  0
 40 65  1  0  0  0  0
 41 66  1  0  0  0  0
M  END
$$$$
