CHEMBL2032027
 OpenBabel04072215363D

 66 70  0  0  0  0  0  0  0  0999 V2000
    4.4644    2.6827    2.8145 C   0  0  0  0  0  0  0  0  0  0  0  0
    4.1814    3.4715    1.6625 O   0  0  0  0  0  0  0  0  0  0  0  0
    4.5956    2.8056    0.4581 C   0  0  0  0  0  0  0  0  0  0  0  0
    4.1586    3.6330   -0.7559 C   0  0  0  0  0  0  0  0  0  0  0  0
    4.5297    3.1002   -2.0910 N   0  0  0  0  0  0  0  0  0  0  0  0
    5.3081    3.7500   -3.0627 C   0  0  0  0  0  0  0  0  0  0  0  0
    5.5423    5.2305   -3.0521 C   0  0  0  0  0  0  0  0  0  0  0  0
    5.8018    2.8951   -3.9916 C   0  0  0  0  0  0  0  0  0  0  0  0
    6.5866    3.2255   -5.2254 C   0  0  0  0  0  0  0  0  0  0  0  0
    6.9130    4.3928   -5.4223 O   0  0  0  0  0  0  0  0  0  0  0  0
    6.8804    2.1611   -6.0631 N   0  0  0  0  0  0  0  0  0  0  0  0
    7.5506    2.2536   -7.3099 C   0  0  0  0  0  0  0  0  0  0  0  0
    7.8308    1.0942   -8.0245 C   0  0  0  0  0  0  0  0  0  0  0  0
    8.4811    1.1636   -9.2792 C   0  0  0  0  0  0  0  0  0  0  0  0
    8.7899    2.4022   -9.8492 C   0  0  0  0  0  0  0  0  0  0  0  0
    9.3473    2.6490  -11.1025 O   0  0  0  0  0  0  0  0  0  0  0  0
    9.2877    1.6600  -12.0754 C   0  0  0  0  0  0  0  0  0  0  0  0
    8.1186    0.9498  -12.2998 C   0  0  0  0  0  0  0  0  0  0  0  0
    8.2364   -0.2676  -12.9350 C   0  0  0  0  0  0  0  0  0  0  0  0
    9.4258   -0.8353  -13.2402 N   0  0  0  0  0  0  0  0  0  0  0  0
   10.5298   -0.0746  -13.1044 C   0  0  0  0  0  0  0  0  0  0  0  0
   11.7939   -0.6353  -13.1575 C   0  0  0  0  0  0  0  0  0  0  0  0
   12.9081    0.1854  -13.0002 C   0  0  0  0  0  0  0  0  0  0  0  0
   13.9296   -0.2823  -12.2188 O   0  0  0  0  0  0  0  0  0  0  0  0
   14.6228    0.7482  -11.4871 C   0  0  0  0  0  0  0  0  0  0  0  0
   12.7891    1.5188  -13.3392 C   0  0  0  0  0  0  0  0  0  0  0  0
   11.5772    2.0971  -13.0421 C   0  0  0  0  0  0  0  0  0  0  0  0
   10.4722    1.2744  -12.7464 C   0  0  0  0  0  0  0  0  0  0  0  0
    8.5000    3.4992   -9.0591 C   0  0  0  0  0  0  0  0  0  0  0  0
    7.9128    3.4577   -7.8273 N   0  0  0  0  0  0  0  0  0  0  0  0
    5.3755    1.5462   -3.5238 C   0  0  0  0  0  0  0  0  0  0  0  0
    5.6244    0.5233   -4.1486 O   0  0  0  0  0  0  0  0  0  0  0  0
    4.6489    1.7212   -2.3305 N   0  0  0  0  0  0  0  0  0  0  0  0
    3.7255    0.7624   -1.8553 C   0  0  0  0  0  0  0  0  0  0  0  0
    4.2073   -0.5030   -1.4981 C   0  0  0  0  0  0  0  0  0  0  0  0
    3.3603   -1.4424   -0.9096 C   0  0  0  0  0  0  0  0  0  0  0  0
    2.0173   -1.1353   -0.6998 C   0  0  0  0  0  0  0  0  0  0  0  0
    1.5233    0.1152   -1.0681 C   0  0  0  0  0  0  0  0  0  0  0  0
    2.3766    1.0676   -1.6321 C   0  0  0  0  0  0  0  0  0  0  0  0
    4.0907    3.2080    3.6981 H   0  0  0  0  0  0  0  0  0  0  0  0
    5.5438    2.5413    2.9202 H   0  0  0  0  0  0  0  0  0  0  0  0
    3.9620    1.7116    2.7532 H   0  0  0  0  0  0  0  0  0  0  0  0
    4.1315    1.8187    0.4559 H   0  0  0  0  0  0  0  0  0  0  0  0
    5.6836    2.6866    0.4684 H   0  0  0  0  0  0  0  0  0  0  0  0
    4.5664    4.6406   -0.6099 H   0  0  0  0  0  0  0  0  0  0  0  0
    3.0712    3.7807   -0.7234 H   0  0  0  0  0  0  0  0  0  0  0  0
    4.9515    5.7516   -2.2959 H   0  0  0  0  0  0  0  0  0  0  0  0
    5.2760    5.6770   -4.0160 H   0  0  0  0  0  0  0  0  0  0  0  0
    6.5967    5.4361   -2.8323 H   0  0  0  0  0  0  0  0  0  0  0  0
    6.5848    1.2328   -5.7688 H   0  0  0  0  0  0  0  0  0  0  0  0
    7.5529    0.1200   -7.6284 H   0  0  0  0  0  0  0  0  0  0  0  0
    8.7224    0.2316   -9.7838 H   0  0  0  0  0  0  0  0  0  0  0  0
    7.1664    1.3038  -11.9282 H   0  0  0  0  0  0  0  0  0  0  0  0
    7.3631   -0.8752  -13.1439 H   0  0  0  0  0  0  0  0  0  0  0  0
   11.8944   -1.7205  -13.1498 H   0  0  0  0  0  0  0  0  0  0  0  0
   14.8292    0.4176  -10.4634 H   0  0  0  0  0  0  0  0  0  0  0  0
   14.0851    1.7021  -11.3768 H   0  0  0  0  0  0  0  0  0  0  0  0
   15.5652    0.9244  -12.0060 H   0  0  0  0  0  0  0  0  0  0  0  0
   13.6719    2.1091  -13.5775 H   0  0  0  0  0  0  0  0  0  0  0  0
   11.5008    3.1819  -13.0288 H   0  0  0  0  0  0  0  0  0  0  0  0
    8.7596    4.5048   -9.3812 H   0  0  0  0  0  0  0  0  0  0  0  0
    5.2610   -0.7403   -1.6233 H   0  0  0  0  0  0  0  0  0  0  0  0
    3.7536   -2.4076   -0.6022 H   0  0  0  0  0  0  0  0  0  0  0  0
    1.3564   -1.8690   -0.2443 H   0  0  0  0  0  0  0  0  0  0  0  0
    0.4730    0.3482   -0.9068 H   0  0  0  0  0  0  0  0  0  0  0  0
    1.9708    2.0364   -1.9131 H   0  0  0  0  0  0  0  0  0  0  0  0
  1  2  1  0  0  0  0
  1 40  1  0  0  0  0
  1 41  1  0  0  0  0
  1 42  1  0  0  0  0
  2  3  1  0  0  0  0
  3  4  1  0  0  0  0
  3 43  1  0  0  0  0
  3 44  1  0  0  0  0
  4  5  1  0  0  0  0
  4 45  1  0  0  0  0
  4 46  1  0  0  0  0
  5  6  1  0  0  0  0
  5 33  1  0  0  0  0
  6  7  1  0  0  0  0
  6  8  2  0  0  0  0
  7 47  1  0  0  0  0
  7 48  1  0  0  0  0
  7 49  1  0  0  0  0
  8  9  1  0  0  0  0
  8 31  1  0  0  0  0
  9 10  2  0  0  0  0
  9 11  1  0  0  0  0
 11 12  1  0  0  0  0
 11 50  1  0  0  0  0
 12 13  1  0  0  0  0
 12 30  2  0  0  0  0
 13 14  2  0  0  0  0
 13 51  1  0  0  0  0
 14 15  1  0  0  0  0
 14 52  1  0  0  0  0
 15 16  1  0  0  0  0
 15 29  2  0  0  0  0
 16 17  1  0  0  0  0
 17 18  1  0  0  0  0
 17 28  2  0  0  0  0
 18 19  2  0  0  0  0
 18 53  1  0  0  0  0
 19 20  1  0  0  0  0
 19 54  1  0  0  0  0
 20 21  2  0  0  0  0
 21 22  1  0  0  0  0
 21 28  1  0  0  0  0
 22 23  2  0  0  0  0
 22 55  1  0  0  0  0
 23 24  1  0  0  0  0
 23 26  1  0  0  0  0
 24 25  1  0  0  0  0
 25 56  1  0  0  0  0
 25 57  1  0  0  0  0
 25 58  1  0  0  0  0
 26 27  2  0  0  0  0
 26 59  1  0  0  0  0
 27 28  1  0  0  0  0
 27 60  1  0  0  0  0
 29 30  1  0  0  0  0
 29 61  1  0  0  0  0
 31 32  2  0  0  0  0
 31 33  1  0  0  0  0
 33 34  1  0  0  0  0
 34 35  1  0  0  0  0
 34 39  2  0  0  0  0
 35 36  2  0  0  0  0
 35 62  1  0  0  0  0
 36 37  1  0  0  0  0
 36 63  1  0  0  0  0
 37 38  2  0  0  0  0
 37 64  1  0  0  0  0
 38 39  1  0  0  0  0
 38 65  1  0  0  0  0
 39 66  1  0  0  0  0
M  END
$$$$
