CHEMBL269885
 OpenBabel04072215363D

 46 49  0  0  0  0  0  0  0  0999 V2000
    0.2573   -1.4963   -0.1562 C   0  0  0  0  0  0  0  0  0  0  0  0
    1.5864   -1.9977   -0.0300 O   0  0  0  0  0  0  0  0  0  0  0  0
    2.3012   -2.0992   -1.1914 C   0  0  0  0  0  0  0  0  0  0  0  0
    1.8391   -1.7359   -2.4497 C   0  0  0  0  0  0  0  0  0  0  0  0
    2.6510   -1.8944   -3.5723 C   0  0  0  0  0  0  0  0  0  0  0  0
    3.9453   -2.4094   -3.4700 C   0  0  0  0  0  0  0  0  0  0  0  0
    4.7904   -2.6025   -4.5939 N   0  0  0  0  0  0  0  0  0  0  0  0
    4.4992   -2.1987   -5.8827 C   0  0  0  0  0  0  0  0  0  0  0  0
    3.5295   -1.5275   -6.2107 O   0  0  0  0  0  0  0  0  0  0  0  0
    5.4189   -2.6884   -6.8068 N   0  0  0  0  0  0  0  0  0  0  0  0
    5.2500   -2.3948   -8.1823 C   0  0  0  0  0  0  0  0  0  0  0  0
    4.8798   -1.1198   -8.6143 C   0  0  0  0  0  0  0  0  0  0  0  0
    4.5189   -0.8946   -9.9456 C   0  0  0  0  0  0  0  0  0  0  0  0
    4.5465   -1.9308  -10.8917 C   0  0  0  0  0  0  0  0  0  0  0  0
    4.0827   -1.7140  -12.2790 C   0  0  0  0  0  0  0  0  0  0  0  0
    4.3595   -0.5042  -12.9699 C   0  0  0  0  0  0  0  0  0  0  0  0
    3.9892   -0.2937  -14.3017 C   0  0  0  0  0  0  0  0  0  0  0  0
    3.3485   -1.2929  -15.0275 C   0  0  0  0  0  0  0  0  0  0  0  0
    3.0476   -2.4601  -14.3324 C   0  0  0  0  0  0  0  0  0  0  0  0
    2.4109   -3.5338  -14.8646 O   0  0  0  0  0  0  0  0  0  0  0  0
    2.2054   -4.4812  -13.8845 N   0  0  0  0  0  0  0  0  0  0  0  0
    2.7128   -3.9618  -12.7648 C   0  0  0  0  0  0  0  0  0  0  0  0
    2.5882   -4.5673  -11.5647 N   0  0  0  0  0  0  0  0  0  0  0  0
    3.3420   -2.6969  -12.9960 C   0  0  0  0  0  0  0  0  0  0  0  0
    5.0506   -3.1723  -10.4582 C   0  0  0  0  0  0  0  0  0  0  0  0
    5.3868   -3.4128   -9.1188 C   0  0  0  0  0  0  0  0  0  0  0  0
    4.4129   -2.7720   -2.2045 C   0  0  0  0  0  0  0  0  0  0  0  0
    3.5936   -2.6160   -1.0752 C   0  0  0  0  0  0  0  0  0  0  0  0
   -0.1929   -1.4683    0.8400 H   0  0  0  0  0  0  0  0  0  0  0  0
   -0.3561   -2.1566   -0.7800 H   0  0  0  0  0  0  0  0  0  0  0  0
    0.2565   -0.4733   -0.5492 H   0  0  0  0  0  0  0  0  0  0  0  0
    0.8475   -1.3249   -2.6094 H   0  0  0  0  0  0  0  0  0  0  0  0
    2.2167   -1.5975   -4.5202 H   0  0  0  0  0  0  0  0  0  0  0  0
    5.7175   -2.9559   -4.4164 H   0  0  0  0  0  0  0  0  0  0  0  0
    5.7905   -3.6015   -6.5851 H   0  0  0  0  0  0  0  0  0  0  0  0
    4.8205   -0.2928   -7.9095 H   0  0  0  0  0  0  0  0  0  0  0  0
    4.1797    0.1028  -10.2157 H   0  0  0  0  0  0  0  0  0  0  0  0
    4.8939    0.2983  -12.4625 H   0  0  0  0  0  0  0  0  0  0  0  0
    4.2201    0.6552  -14.7818 H   0  0  0  0  0  0  0  0  0  0  0  0
    3.0754   -1.1677  -16.0685 H   0  0  0  0  0  0  0  0  0  0  0  0
    1.9293   -5.3387  -11.5230 H   0  0  0  0  0  0  0  0  0  0  0  0
    2.5618   -3.9905  -10.7309 H   0  0  0  0  0  0  0  0  0  0  0  0
    5.1412   -4.0003  -11.1596 H   0  0  0  0  0  0  0  0  0  0  0  0
    5.6730   -4.4171   -8.8218 H   0  0  0  0  0  0  0  0  0  0  0  0
    5.4123   -3.1789   -2.0719 H   0  0  0  0  0  0  0  0  0  0  0  0
    3.9677   -2.9037   -0.0949 H   0  0  0  0  0  0  0  0  0  0  0  0
  1  2  1  0  0  0  0
  1 29  1  0  0  0  0
  1 30  1  0  0  0  0
  1 31  1  0  0  0  0
  2  3  1  0  0  0  0
  3  4  1  0  0  0  0
  3 28  2  0  0  0  0
  4  5  2  0  0  0  0
  4 32  1  0  0  0  0
  5  6  1  0  0  0  0
  5 33  1  0  0  0  0
  6  7  1  0  0  0  0
  6 27  2  0  0  0  0
  7  8  1  0  0  0  0
  7 34  1  0  0  0  0
  8  9  2  0  0  0  0
  8 10  1  0  0  0  0
 10 11  1  0  0  0  0
 10 35  1  0  0  0  0
 11 12  1  0  0  0  0
 11 26  2  0  0  0  0
 12 13  2  0  0  0  0
 12 36  1  0  0  0  0
 13 14  1  0  0  0  0
 13 37  1  0  0  0  0
 14 15  1  0  0  0  0
 14 25  2  0  0  0  0
 15 16  1  0  0  0  0
 15 24  2  0  0  0  0
 16 17  2  0  0  0  0
 16 38  1  0  0  0  0
 17 18  1  0  0  0  0
 17 39  1  0  0  0  0
 18 19  2  0  0  0  0
 18 40  1  0  0  0  0
 19 20  1  0  0  0  0
 19 24  1  0  0  0  0
 20 21  1  0  0  0  0
 21 22  2  0  0  0  0
 22 23  1  0  0  0  0
 22 24  1  0  0  0  0
 23 41  1  0  0  0  0
 23 42  1  0  0  0  0
 25 26  1  0  0  0  0
 25 43  1  0  0  0  0
 26 44  1  0  0  0  0
 27 28  1  0  0  0  0
 27 45  1  0  0  0  0
 28 46  1  0  0  0  0
M  END
$$$$
