CHEMBL3671497
 OpenBabel04072215373D

 49 51  0  0  0  0  0  0  0  0999 V2000
    3.5847    1.7377   -3.5247 C   0  0  0  0  0  0  0  0  0  0  0  0
    3.6116    2.0648   -2.2278 C   0  0  0  0  0  0  0  0  0  0  0  0
    3.7880    0.9894   -1.2208 C   0  0  0  0  0  0  0  0  0  0  0  0
    3.3474   -0.1450   -1.3868 O   0  0  0  0  0  0  0  0  0  0  0  0
    4.5219    1.2855   -0.0951 N   0  0  0  0  0  0  0  0  0  0  0  0
    5.3316    2.4264    0.0181 C   0  0  0  0  0  0  0  0  0  0  0  0
    6.4684    2.4894   -0.7869 C   0  0  0  0  0  0  0  0  0  0  0  0
    7.1566    3.7076   -0.9507 C   0  0  0  0  0  0  0  0  0  0  0  0
    8.1933    3.9082   -1.8734 C   0  0  0  0  0  0  0  0  0  0  0  0
    8.5620    2.8639   -2.7649 N   0  0  0  0  0  0  0  0  0  0  0  0
    9.2941    3.0683   -3.9587 C   0  0  0  0  0  0  0  0  0  0  0  0
    8.9833    4.1275   -4.8228 C   0  0  0  0  0  0  0  0  0  0  0  0
    9.7780    4.3982   -5.9374 C   0  0  0  0  0  0  0  0  0  0  0  0
   10.8806    3.5911   -6.2089 C   0  0  0  0  0  0  0  0  0  0  0  0
   12.0095    4.0187   -7.6625 Br  0  0  0  0  0  0  0  0  0  0  0  0
   11.1680    2.4901   -5.4059 C   0  0  0  0  0  0  0  0  0  0  0  0
   10.3660    2.2332   -4.2967 C   0  0  0  0  0  0  0  0  0  0  0  0
   10.6556    1.1831   -3.5119 F   0  0  0  0  0  0  0  0  0  0  0  0
    8.8066    5.0981   -1.9965 N   0  0  0  0  0  0  0  0  0  0  0  0
    8.3649    6.0919   -1.2242 C   0  0  0  0  0  0  0  0  0  0  0  0
    7.3528    6.0236   -0.3561 N   0  0  0  0  0  0  0  0  0  0  0  0
    6.7445    4.8413   -0.2332 C   0  0  0  0  0  0  0  0  0  0  0  0
    5.6361    4.7385    0.6055 C   0  0  0  0  0  0  0  0  0  0  0  0
    4.9211    3.5446    0.7537 C   0  0  0  0  0  0  0  0  0  0  0  0
    3.8087    3.6147    1.5615 O   0  0  0  0  0  0  0  0  0  0  0  0
    3.6000    2.4558    2.3786 C   0  0  0  0  0  0  0  0  0  0  0  0
    2.5310    2.7059    3.4435 C   0  0  0  0  0  0  0  0  0  0  0  0
    2.2677    1.4969    4.2084 N   0  0  0  0  0  0  0  0  0  0  0  0
    3.0414    1.1304    5.2597 C   0  0  0  0  0  0  0  0  0  0  0  0
    2.7064   -0.0824    5.7711 N   0  0  0  0  0  0  0  0  0  0  0  0
    3.9597    1.7858    5.7278 O   0  0  0  0  0  0  0  0  0  0  0  0
    3.5247    2.5018   -4.2919 H   0  0  0  0  0  0  0  0  0  0  0  0
    3.6458    0.7014   -3.8462 H   0  0  0  0  0  0  0  0  0  0  0  0
    3.5737    3.0981   -1.9041 H   0  0  0  0  0  0  0  0  0  0  0  0
    4.8773    0.4298    0.3191 H   0  0  0  0  0  0  0  0  0  0  0  0
    6.7603    1.6131   -1.3619 H   0  0  0  0  0  0  0  0  0  0  0  0
    8.8892    2.0470   -2.2553 H   0  0  0  0  0  0  0  0  0  0  0  0
    8.1321    4.7708   -4.6097 H   0  0  0  0  0  0  0  0  0  0  0  0
    9.5392    5.2531   -6.5645 H   0  0  0  0  0  0  0  0  0  0  0  0
   12.0159    1.8461   -5.6119 H   0  0  0  0  0  0  0  0  0  0  0  0
    8.8723    7.0477   -1.3232 H   0  0  0  0  0  0  0  0  0  0  0  0
    5.2981    5.6302    1.1305 H   0  0  0  0  0  0  0  0  0  0  0  0
    4.5399    2.1533    2.8567 H   0  0  0  0  0  0  0  0  0  0  0  0
    3.2189    1.6323    1.7707 H   0  0  0  0  0  0  0  0  0  0  0  0
    1.5892    3.0109    2.9744 H   0  0  0  0  0  0  0  0  0  0  0  0
    2.8388    3.5127    4.1165 H   0  0  0  0  0  0  0  0  0  0  0  0
    1.5128    0.8875    3.9292 H   0  0  0  0  0  0  0  0  0  0  0  0
    2.4291   -0.8029    5.1211 H   0  0  0  0  0  0  0  0  0  0  0  0
    3.3403   -0.3954    6.4973 H   0  0  0  0  0  0  0  0  0  0  0  0
  1  2  2  0  0  0  0
  1 32  1  0  0  0  0
  1 33  1  0  0  0  0
  2  3  1  0  0  0  0
  2 34  1  0  0  0  0
  3  4  2  0  0  0  0
  3  5  1  0  0  0  0
  5  6  1  0  0  0  0
  5 35  1  0  0  0  0
  6  7  1  0  0  0  0
  6 24  2  0  0  0  0
  7  8  2  0  0  0  0
  7 36  1  0  0  0  0
  8  9  1  0  0  0  0
  8 22  1  0  0  0  0
  9 10  1  0  0  0  0
  9 19  2  0  0  0  0
 10 11  1  0  0  0  0
 10 37  1  0  0  0  0
 11 12  1  0  0  0  0
 11 17  2  0  0  0  0
 12 13  2  0  0  0  0
 12 38  1  0  0  0  0
 13 14  1  0  0  0  0
 13 39  1  0  0  0  0
 14 15  1  0  0  0  0
 14 16  2  0  0  0  0
 16 17  1  0  0  0  0
 16 40  1  0  0  0  0
 17 18  1  0  0  0  0
 19 20  1  0  0  0  0
 20 21  2  0  0  0  0
 20 41  1  0  0  0  0
 21 22  1  0  0  0  0
 22 23  2  0  0  0  0
 23 24  1  0  0  0  0
 23 42  1  0  0  0  0
 24 25  1  0  0  0  0
 25 26  1  0  0  0  0
 26 27  1  0  0  0  0
 26 43  1  0  0  0  0
 26 44  1  0  0  0  0
 27 28  1  0  0  0  0
 27 45  1  0  0  0  0
 27 46  1  0  0  0  0
 28 29  1  0  0  0  0
 28 47  1  0  0  0  0
 29 30  1  0  0  0  0
 29 31  2  0  0  0  0
 30 48  1  0  0  0  0
 30 49  1  0  0  0  0
M  END
$$$$
