CHEMBL1241775
 OpenBabel04072215363D

 37 40  0  0  0  0  0  0  0  0999 V2000
    3.7389    0.0615    0.5346 C   0  0  0  0  0  0  0  0  0  0  0  0
    2.4673    0.0117   -0.3155 C   0  0  0  0  0  0  0  0  0  0  0  0
    1.6623    1.3021   -0.1480 C   0  0  0  0  0  0  0  0  0  0  0  0
    2.7784   -0.2928   -1.7102 N   0  0  0  0  0  0  0  0  0  0  0  0
    3.1721    0.6799   -2.5550 N   0  0  0  0  0  0  0  0  0  0  0  0
    3.5498    0.0348   -3.6754 C   0  0  0  0  0  0  0  0  0  0  0  0
    4.2716    0.7940   -4.7048 C   0  0  0  0  0  0  0  0  0  0  0  0
    5.1452    1.7844   -4.2763 C   0  0  0  0  0  0  0  0  0  0  0  0
    5.9934    2.4702   -5.0731 N   0  0  0  0  0  0  0  0  0  0  0  0
    5.9961    2.1828   -6.3707 C   0  0  0  0  0  0  0  0  0  0  0  0
    6.8975    2.8103   -7.1281 N   0  0  0  0  0  0  0  0  0  0  0  0
    6.9284    2.5069   -8.4405 C   0  0  0  0  0  0  0  0  0  0  0  0
    6.0581    1.5984   -9.0012 C   0  0  0  0  0  0  0  0  0  0  0  0
    5.1307    0.9431   -8.2652 N   0  0  0  0  0  0  0  0  0  0  0  0
    5.1070    1.2305   -6.9409 C   0  0  0  0  0  0  0  0  0  0  0  0
    4.2307    0.5633   -6.0772 C   0  0  0  0  0  0  0  0  0  0  0  0
    3.3138   -1.3745   -3.5601 C   0  0  0  0  0  0  0  0  0  0  0  0
    3.4925   -2.5534   -4.2989 C   0  0  0  0  0  0  0  0  0  0  0  0
    3.9703   -2.6297   -5.5996 N   0  0  0  0  0  0  0  0  0  0  0  0
    3.2108   -3.7389   -3.7157 N   0  0  0  0  0  0  0  0  0  0  0  0
    2.7820   -3.7516   -2.4412 C   0  0  0  0  0  0  0  0  0  0  0  0
    2.5695   -2.7003   -1.6401 N   0  0  0  0  0  0  0  0  0  0  0  0
    2.8460   -1.5414   -2.2627 C   0  0  0  0  0  0  0  0  0  0  0  0
    3.4954    0.2537    1.5858 H   0  0  0  0  0  0  0  0  0  0  0  0
    4.4191    0.8514    0.1964 H   0  0  0  0  0  0  0  0  0  0  0  0
    4.2834   -0.8879    0.4877 H   0  0  0  0  0  0  0  0  0  0  0  0
    1.8417   -0.8129    0.0481 H   0  0  0  0  0  0  0  0  0  0  0  0
    2.2380    2.1826   -0.4544 H   0  0  0  0  0  0  0  0  0  0  0  0
    1.3779    1.4416    0.9012 H   0  0  0  0  0  0  0  0  0  0  0  0
    0.7451    1.2731   -0.7447 H   0  0  0  0  0  0  0  0  0  0  0  0
    5.2158    2.0538   -3.2230 H   0  0  0  0  0  0  0  0  0  0  0  0
    7.6856    3.0204   -9.0222 H   0  0  0  0  0  0  0  0  0  0  0  0
    6.0902    1.3708  -10.0608 H   0  0  0  0  0  0  0  0  0  0  0  0
    3.5308   -0.1537   -6.5062 H   0  0  0  0  0  0  0  0  0  0  0  0
    4.7135   -1.9819   -5.8192 H   0  0  0  0  0  0  0  0  0  0  0  0
    4.1833   -3.5974   -5.8230 H   0  0  0  0  0  0  0  0  0  0  0  0
    2.5976   -4.7304   -2.0083 H   0  0  0  0  0  0  0  0  0  0  0  0
  1  2  1  0  0  0  0
  1 24  1  0  0  0  0
  1 25  1  0  0  0  0
  1 26  1  0  0  0  0
  2  3  1  0  0  0  0
  2  4  1  0  0  0  0
  2 27  1  0  0  0  0
  3 28  1  0  0  0  0
  3 29  1  0  0  0  0
  3 30  1  0  0  0  0
  4  5  1  0  0  0  0
  4 23  1  0  0  0  0
  5  6  2  0  0  0  0
  6  7  1  0  0  0  0
  6 17  1  0  0  0  0
  7  8  1  0  0  0  0
  7 16  2  0  0  0  0
  8  9  2  0  0  0  0
  8 31  1  0  0  0  0
  9 10  1  0  0  0  0
 10 11  1  0  0  0  0
 10 15  2  0  0  0  0
 11 12  2  0  0  0  0
 12 13  1  0  0  0  0
 12 32  1  0  0  0  0
 13 14  2  0  0  0  0
 13 33  1  0  0  0  0
 14 15  1  0  0  0  0
 15 16  1  0  0  0  0
 16 34  1  0  0  0  0
 17 18  1  0  0  0  0
 17 23  2  0  0  0  0
 18 19  1  0  0  0  0
 18 20  2  0  0  0  0
 19 35  1  0  0  0  0
 19 36  1  0  0  0  0
 20 21  1  0  0  0  0
 21 22  2  0  0  0  0
 21 37  1  0  0  0  0
 22 23  1  0  0  0  0
M  END
$$$$
