CHEMBL244486
 OpenBabel04072215363D

 58 62  0  0  0  0  0  0  0  0999 V2000
    1.1619    0.6404    0.4775 O   0  0  0  0  0  0  0  0  0  0  0  0
    2.2265    0.1510    0.1371 C   0  0  0  0  0  0  0  0  0  0  0  0
    2.7290    0.2081   -1.1526 N   0  0  0  0  0  0  0  0  0  0  0  0
    2.0309    0.7879   -2.2477 C   0  0  0  0  0  0  0  0  0  0  0  0
    0.9150    1.6061   -2.0778 C   0  0  0  0  0  0  0  0  0  0  0  0
    0.1518    2.0387   -3.1689 C   0  0  0  0  0  0  0  0  0  0  0  0
    0.5604    1.7408   -4.4583 C   0  0  0  0  0  0  0  0  0  0  0  0
   -0.1314    2.0993   -5.5893 O   0  0  0  0  0  0  0  0  0  0  0  0
   -0.9367    3.2234   -5.6028 C   0  0  0  0  0  0  0  0  0  0  0  0
   -2.0865    3.1076   -6.3922 C   0  0  0  0  0  0  0  0  0  0  0  0
   -2.9504    4.1935   -6.5712 C   0  0  0  0  0  0  0  0  0  0  0  0
   -2.6534    5.4038   -5.9315 C   0  0  0  0  0  0  0  0  0  0  0  0
   -3.3744    6.5689   -5.9143 N   0  0  0  0  0  0  0  0  0  0  0  0
   -2.6398    7.4264   -5.2476 C   0  0  0  0  0  0  0  0  0  0  0  0
   -3.0324    8.7279   -5.0538 N   0  0  0  0  0  0  0  0  0  0  0  0
   -2.1290    9.7671   -4.9880 C   0  0  0  0  0  0  0  0  0  0  0  0
   -0.9099    9.6452   -5.0022 O   0  0  0  0  0  0  0  0  0  0  0  0
   -2.7348   11.1268   -4.9700 C   0  0  0  0  0  0  0  0  0  0  0  0
   -3.9336   11.4158   -4.3077 C   0  0  0  0  0  0  0  0  0  0  0  0
   -4.4161   12.7269   -4.2989 C   0  0  0  0  0  0  0  0  0  0  0  0
   -3.6881   13.7031   -4.9651 C   0  0  0  0  0  0  0  0  0  0  0  0
   -2.5384   13.4560   -5.6234 N   0  0  0  0  0  0  0  0  0  0  0  0
   -2.0801   12.1781   -5.6042 C   0  0  0  0  0  0  0  0  0  0  0  0
   -1.4941    6.8382   -4.7686 N   0  0  0  0  0  0  0  0  0  0  0  0
   -1.4890    5.5215   -5.1789 C   0  0  0  0  0  0  0  0  0  0  0  0
   -0.5994    4.4462   -4.9904 C   0  0  0  0  0  0  0  0  0  0  0  0
    1.7024    0.9533   -4.6492 C   0  0  0  0  0  0  0  0  0  0  0  0
    2.4433    0.4796   -3.5481 C   0  0  0  0  0  0  0  0  0  0  0  0
    3.0375   -0.5502    1.0068 N   0  0  0  0  0  0  0  0  0  0  0  0
    2.7125   -0.8752    2.3494 C   0  0  0  0  0  0  0  0  0  0  0  0
    1.4797   -0.5852    2.9518 C   0  0  0  0  0  0  0  0  0  0  0  0
    1.2072   -0.9382    4.2857 C   0  0  0  0  0  0  0  0  0  0  0  0
   -0.1286   -0.6004    4.9077 C   0  0  0  0  0  0  0  0  0  0  0  0
   -0.9773    0.0619    4.0834 F   0  0  0  0  0  0  0  0  0  0  0  0
   -0.8014   -1.7119    5.3200 F   0  0  0  0  0  0  0  0  0  0  0  0
    0.0031    0.1859    6.0126 F   0  0  0  0  0  0  0  0  0  0  0  0
    2.1933   -1.6074    5.0222 C   0  0  0  0  0  0  0  0  0  0  0  0
    3.4239   -1.9101    4.4354 C   0  0  0  0  0  0  0  0  0  0  0  0
    3.6722   -1.5428    3.1141 C   0  0  0  0  0  0  0  0  0  0  0  0
    4.8598   -1.8474    2.5669 F   0  0  0  0  0  0  0  0  0  0  0  0
    3.5089   -0.3833   -1.3696 H   0  0  0  0  0  0  0  0  0  0  0  0
    0.5713    1.9318   -1.1048 H   0  0  0  0  0  0  0  0  0  0  0  0
   -0.7566    2.5962   -2.9678 H   0  0  0  0  0  0  0  0  0  0  0  0
   -2.3170    2.1625   -6.8784 H   0  0  0  0  0  0  0  0  0  0  0  0
   -3.8328    4.1132   -7.1952 H   0  0  0  0  0  0  0  0  0  0  0  0
   -3.9795    8.9109   -5.3582 H   0  0  0  0  0  0  0  0  0  0  0  0
   -4.4828   10.6469   -3.7730 H   0  0  0  0  0  0  0  0  0  0  0  0
   -5.3303   12.9863   -3.7749 H   0  0  0  0  0  0  0  0  0  0  0  0
   -4.0243   14.7374   -4.9788 H   0  0  0  0  0  0  0  0  0  0  0  0
   -1.1474   12.0189   -6.1432 H   0  0  0  0  0  0  0  0  0  0  0  0
   -0.8093    7.2930   -4.1804 H   0  0  0  0  0  0  0  0  0  0  0  0
    0.3048    4.5614   -4.4038 H   0  0  0  0  0  0  0  0  0  0  0  0
    2.0085    0.6831   -5.6552 H   0  0  0  0  0  0  0  0  0  0  0  0
    3.3101   -0.1485   -3.7337 H   0  0  0  0  0  0  0  0  0  0  0  0
    3.9669   -0.8043    0.7023 H   0  0  0  0  0  0  0  0  0  0  0  0
    0.6866   -0.0792    2.4101 H   0  0  0  0  0  0  0  0  0  0  0  0
    2.0006   -1.8950    6.0545 H   0  0  0  0  0  0  0  0  0  0  0  0
    4.1905   -2.4319    5.0000 H   0  0  0  0  0  0  0  0  0  0  0  0
  1  2  2  0  0  0  0
  2  3  1  0  0  0  0
  2 29  1  0  0  0  0
  3  4  1  0  0  0  0
  3 41  1  0  0  0  0
  4  5  1  0  0  0  0
  4 28  2  0  0  0  0
  5  6  2  0  0  0  0
  5 42  1  0  0  0  0
  6  7  1  0  0  0  0
  6 43  1  0  0  0  0
  7  8  1  0  0  0  0
  7 27  2  0  0  0  0
  8  9  1  0  0  0  0
  9 10  1  0  0  0  0
  9 26  2  0  0  0  0
 10 11  2  0  0  0  0
 10 44  1  0  0  0  0
 11 12  1  0  0  0  0
 11 45  1  0  0  0  0
 12 13  1  0  0  0  0
 12 25  2  0  0  0  0
 13 14  2  0  0  0  0
 14 15  1  0  0  0  0
 14 24  1  0  0  0  0
 15 16  1  0  0  0  0
 15 46  1  0  0  0  0
 16 17  2  0  0  0  0
 16 18  1  0  0  0  0
 18 19  1  0  0  0  0
 18 23  2  0  0  0  0
 19 20  2  0  0  0  0
 19 47  1  0  0  0  0
 20 21  1  0  0  0  0
 20 48  1  0  0  0  0
 21 22  2  0  0  0  0
 21 49  1  0  0  0  0
 22 23  1  0  0  0  0
 23 50  1  0  0  0  0
 24 25  1  0  0  0  0
 24 51  1  0  0  0  0
 25 26  1  0  0  0  0
 26 52  1  0  0  0  0
 27 28  1  0  0  0  0
 27 53  1  0  0  0  0
 28 54  1  0  0  0  0
 29 30  1  0  0  0  0
 29 55  1  0  0  0  0
 30 31  1  0  0  0  0
 30 39  2  0  0  0  0
 31 32  2  0  0  0  0
 31 56  1  0  0  0  0
 32 33  1  0  0  0  0
 32 37  1  0  0  0  0
 33 34  1  0  0  0  0
 33 35  1  0  0  0  0
 33 36  1  0  0  0  0
 37 38  2  0  0  0  0
 37 57  1  0  0  0  0
 38 39  1  0  0  0  0
 38 58  1  0  0  0  0
 39 40  1  0  0  0  0
M  END
$$$$
