CHEMBL3093588
 OpenBabel04072215363D

 53 57  0  0  0  0  0  0  0  0999 V2000
   -2.3474    0.6144   -0.8720 C   0  0  0  0  0  0  0  0  0  0  0  0
   -1.0409    0.0389   -0.4763 C   0  0  0  0  0  0  0  0  0  0  0  0
   -0.6184   -1.3095   -0.4848 C   0  0  0  0  0  0  0  0  0  0  0  0
    0.6915   -1.3011   -0.0285 C   0  0  0  0  0  0  0  0  0  0  0  0
    1.6447   -2.3752    0.1773 C   0  0  0  0  0  0  0  0  0  0  0  0
    2.7740   -2.1355    0.5886 O   0  0  0  0  0  0  0  0  0  0  0  0
    1.2250   -3.6626   -0.1523 N   0  0  0  0  0  0  0  0  0  0  0  0
    2.0199   -4.8282    0.0215 C   0  0  0  0  0  0  0  0  0  0  0  0
    3.1358   -4.8468    0.8622 C   0  0  0  0  0  0  0  0  0  0  0  0
    3.9785   -5.9515    0.9246 C   0  0  0  0  0  0  0  0  0  0  0  0
    3.6717   -7.0910    0.1948 C   0  0  0  0  0  0  0  0  0  0  0  0
    4.5580   -8.1870    0.1460 O   0  0  0  0  0  0  0  0  0  0  0  0
    5.2861   -8.5374    1.2787 C   0  0  0  0  0  0  0  0  0  0  0  0
    6.5012   -9.2622    0.8409 C   0  0  0  0  0  0  0  0  0  0  0  0
    7.3416   -9.6518    1.8088 C   0  0  0  0  0  0  0  0  0  0  0  0
    7.0229   -9.3674    3.1557 C   0  0  0  0  0  0  0  0  0  0  0  0
    7.6619   -9.6324    4.2714 N   0  0  0  0  0  0  0  0  0  0  0  0
    6.8952   -9.1080    5.2722 C   0  0  0  0  0  0  0  0  0  0  0  0
    7.2246   -9.1731    6.6071 N   0  0  0  0  0  0  0  0  0  0  0  0
    8.3536   -9.8039    7.0852 C   0  0  0  0  0  0  0  0  0  0  0  0
    9.1979  -10.4009    6.4333 O   0  0  0  0  0  0  0  0  0  0  0  0
    8.5610   -9.7623    8.5673 C   0  0  0  0  0  0  0  0  0  0  0  0
    7.5403  -10.3815    9.4939 C   0  0  0  0  0  0  0  0  0  0  0  0
    7.8117   -8.9059    9.5555 C   0  0  0  0  0  0  0  0  0  0  0  0
    5.7685   -8.5046    4.7604 C   0  0  0  0  0  0  0  0  0  0  0  0
    5.8454   -8.6854    3.4040 N   0  0  0  0  0  0  0  0  0  0  0  0
    4.9335   -8.2508    2.4914 N   0  0  0  0  0  0  0  0  0  0  0  0
    2.5342   -7.1230   -0.6117 C   0  0  0  0  0  0  0  0  0  0  0  0
    1.6985   -5.9942   -0.6873 C   0  0  0  0  0  0  0  0  0  0  0  0
    0.9578    0.0301    0.2334 N   0  0  0  0  0  0  0  0  0  0  0  0
    2.1505    0.6662    0.7492 C   0  0  0  0  0  0  0  0  0  0  0  0
   -0.0779    0.8478   -0.0402 N   0  0  0  0  0  0  0  0  0  0  0  0
   -3.0332   -0.1603   -1.2262 H   0  0  0  0  0  0  0  0  0  0  0  0
   -2.2138    1.3463   -1.6759 H   0  0  0  0  0  0  0  0  0  0  0  0
   -2.8138    1.1224   -0.0211 H   0  0  0  0  0  0  0  0  0  0  0  0
   -1.2078   -2.1616   -0.7861 H   0  0  0  0  0  0  0  0  0  0  0  0
    0.3720   -3.7598   -0.6809 H   0  0  0  0  0  0  0  0  0  0  0  0
    3.3972   -4.0040    1.4928 H   0  0  0  0  0  0  0  0  0  0  0  0
    4.8688   -5.8868    1.5412 H   0  0  0  0  0  0  0  0  0  0  0  0
    6.6885   -9.4264   -0.2110 H   0  0  0  0  0  0  0  0  0  0  0  0
    8.2676  -10.1732    1.5946 H   0  0  0  0  0  0  0  0  0  0  0  0
    6.5816   -8.7484    7.2547 H   0  0  0  0  0  0  0  0  0  0  0  0
    9.6039   -9.9475    8.8210 H   0  0  0  0  0  0  0  0  0  0  0  0
    7.9164  -11.0111   10.2935 H   0  0  0  0  0  0  0  0  0  0  0  0
    6.5951  -10.7150    9.0817 H   0  0  0  0  0  0  0  0  0  0  0  0
    8.3727   -8.5337   10.4090 H   0  0  0  0  0  0  0  0  0  0  0  0
    7.0396   -8.2242    9.2286 H   0  0  0  0  0  0  0  0  0  0  0  0
    4.9390   -7.9784    5.2059 H   0  0  0  0  0  0  0  0  0  0  0  0
    2.3084   -8.0078   -1.2009 H   0  0  0  0  0  0  0  0  0  0  0  0
    0.8321   -6.0296   -1.3417 H   0  0  0  0  0  0  0  0  0  0  0  0
    2.9577   -0.0311    0.9451 H   0  0  0  0  0  0  0  0  0  0  0  0
    1.8882    1.1685    1.6841 H   0  0  0  0  0  0  0  0  0  0  0  0
    2.4909    1.3961    0.0098 H   0  0  0  0  0  0  0  0  0  0  0  0
  1  2  1  0  0  0  0
  1 33  1  0  0  0  0
  1 34  1  0  0  0  0
  1 35  1  0  0  0  0
  2  3  1  0  0  0  0
  2 32  2  0  0  0  0
  3  4  2  0  0  0  0
  3 36  1  0  0  0  0
  4  5  1  0  0  0  0
  4 30  1  0  0  0  0
  5  6  2  0  0  0  0
  5  7  1  0  0  0  0
  7  8  1  0  0  0  0
  7 37  1  0  0  0  0
  8  9  1  0  0  0  0
  8 29  2  0  0  0  0
  9 10  2  0  0  0  0
  9 38  1  0  0  0  0
 10 11  1  0  0  0  0
 10 39  1  0  0  0  0
 11 12  1  0  0  0  0
 11 28  2  0  0  0  0
 12 13  1  0  0  0  0
 13 14  1  0  0  0  0
 13 27  2  0  0  0  0
 14 15  2  0  0  0  0
 14 40  1  0  0  0  0
 15 16  1  0  0  0  0
 15 41  1  0  0  0  0
 16 17  2  0  0  0  0
 16 26  1  0  0  0  0
 17 18  1  0  0  0  0
 18 19  1  0  0  0  0
 18 25  2  0  0  0  0
 19 20  1  0  0  0  0
 19 42  1  0  0  0  0
 20 21  2  0  0  0  0
 20 22  1  0  0  0  0
 22 23  1  0  0  0  0
 22 24  1  0  0  0  0
 22 43  1  0  0  0  0
 23 24  1  0  0  0  0
 23 44  1  0  0  0  0
 23 45  1  0  0  0  0
 24 46  1  0  0  0  0
 24 47  1  0  0  0  0
 25 26  1  0  0  0  0
 25 48  1  0  0  0  0
 26 27  1  0  0  0  0
 28 29  1  0  0  0  0
 28 49  1  0  0  0  0
 29 50  1  0  0  0  0
 30 31  1  0  0  0  0
 30 32  1  0  0  0  0
 31 51  1  0  0  0  0
 31 52  1  0  0  0  0
 31 53  1  0  0  0  0
M  END
$$$$
