CHEMBL3114021
 OpenBabel04072215363D

 50 53  0  0  0  0  0  0  0  0999 V2000
    1.8553    1.2655   -0.1757 C   0  0  0  0  0  0  0  0  0  0  0  0
    2.7817    0.2566    0.2299 O   0  0  0  0  0  0  0  0  0  0  0  0
    3.4612   -0.3779   -0.7721 C   0  0  0  0  0  0  0  0  0  0  0  0
    3.3036   -0.1164   -2.1313 C   0  0  0  0  0  0  0  0  0  0  0  0
    4.0636   -0.8169   -3.0621 C   0  0  0  0  0  0  0  0  0  0  0  0
    4.9734   -1.7832   -2.6400 C   0  0  0  0  0  0  0  0  0  0  0  0
    5.1447   -2.0852   -1.2792 C   0  0  0  0  0  0  0  0  0  0  0  0
    6.0901   -3.0277   -0.8402 N   0  0  0  0  0  0  0  0  0  0  0  0
    7.0863   -3.7202   -1.5310 C   0  0  0  0  0  0  0  0  0  0  0  0
    7.5813   -4.8152   -0.9474 N   0  0  0  0  0  0  0  0  0  0  0  0
    8.5714   -5.4408   -1.6071 C   0  0  0  0  0  0  0  0  0  0  0  0
    9.1182   -4.9932   -2.7902 C   0  0  0  0  0  0  0  0  0  0  0  0
    8.5841   -3.8411   -3.3331 C   0  0  0  0  0  0  0  0  0  0  0  0
    9.1552   -3.2308   -4.4949 N   0  0  0  0  0  0  0  0  0  0  0  0
    9.3859   -4.1781   -5.6016 C   0  0  0  0  0  0  0  0  0  0  0  0
    8.9485   -1.8645   -4.9354 C   0  0  0  0  0  0  0  0  0  0  0  0
    8.2164   -0.9404   -4.0886 C   0  0  0  0  0  0  0  0  0  0  0  0
    7.6263    0.2790   -4.4886 C   0  0  0  0  0  0  0  0  0  0  0  0
    8.0785    0.5961   -5.7497 C   0  0  0  0  0  0  0  0  0  0  0  0
    7.7400    1.6774   -6.5449 C   0  0  0  0  0  0  0  0  0  0  0  0
    6.9318    1.7394   -7.8217 C   0  0  0  0  0  0  0  0  0  0  0  0
    9.0617    2.0373   -6.7349 N   0  0  0  0  0  0  0  0  0  0  0  0
    9.5574    3.3765   -6.5865 C   0  0  0  0  0  0  0  0  0  0  0  0
    9.7708    0.9438   -7.1587 N   0  0  0  0  0  0  0  0  0  0  0  0
    9.1686   -0.0424   -6.4387 C   0  0  0  0  0  0  0  0  0  0  0  0
    9.5116   -1.3761   -6.1546 C   0  0  0  0  0  0  0  0  0  0  0  0
    7.5493   -3.2592   -2.7004 N   0  0  0  0  0  0  0  0  0  0  0  0
    4.3859   -1.3551   -0.3600 C   0  0  0  0  0  0  0  0  0  0  0  0
    1.3990    1.6908    0.7235 H   0  0  0  0  0  0  0  0  0  0  0  0
    1.0519    0.8378   -0.7850 H   0  0  0  0  0  0  0  0  0  0  0  0
    2.3623    2.0784   -0.7062 H   0  0  0  0  0  0  0  0  0  0  0  0
    2.6093    0.6216   -2.5040 H   0  0  0  0  0  0  0  0  0  0  0  0
    3.9541   -0.6204   -4.1252 H   0  0  0  0  0  0  0  0  0  0  0  0
    5.5258   -2.3107   -3.3997 H   0  0  0  0  0  0  0  0  0  0  0  0
    5.9225   -3.4557    0.0578 H   0  0  0  0  0  0  0  0  0  0  0  0
    8.9421   -6.3435   -1.1294 H   0  0  0  0  0  0  0  0  0  0  0  0
    9.9511   -5.5187   -3.2347 H   0  0  0  0  0  0  0  0  0  0  0  0
    9.3397   -5.2338   -5.3105 H   0  0  0  0  0  0  0  0  0  0  0  0
   10.3819   -4.0318   -6.0344 H   0  0  0  0  0  0  0  0  0  0  0  0
    8.6303   -4.0603   -6.3896 H   0  0  0  0  0  0  0  0  0  0  0  0
    8.0818   -1.1836   -3.0372 H   0  0  0  0  0  0  0  0  0  0  0  0
    7.0308    0.8979   -3.8353 H   0  0  0  0  0  0  0  0  0  0  0  0
    6.8079    0.7371   -8.2505 H   0  0  0  0  0  0  0  0  0  0  0  0
    7.4655    2.3304   -8.5832 H   0  0  0  0  0  0  0  0  0  0  0  0
    5.9548    2.1962   -7.6740 H   0  0  0  0  0  0  0  0  0  0  0  0
    9.7166    3.5608   -5.5165 H   0  0  0  0  0  0  0  0  0  0  0  0
    8.7826    4.0674   -6.9409 H   0  0  0  0  0  0  0  0  0  0  0  0
   10.4724    3.5014   -7.1500 H   0  0  0  0  0  0  0  0  0  0  0  0
   10.2079   -1.9147   -6.7765 H   0  0  0  0  0  0  0  0  0  0  0  0
    4.5099   -1.5255    0.7118 H   0  0  0  0  0  0  0  0  0  0  0  0
  1  2  1  0  0  0  0
  1 29  1  0  0  0  0
  1 30  1  0  0  0  0
  1 31  1  0  0  0  0
  2  3  1  0  0  0  0
  3  4  1  0  0  0  0
  3 28  2  0  0  0  0
  4  5  2  0  0  0  0
  4 32  1  0  0  0  0
  5  6  1  0  0  0  0
  5 33  1  0  0  0  0
  6  7  2  0  0  0  0
  6 34  1  0  0  0  0
  7  8  1  0  0  0  0
  7 28  1  0  0  0  0
  8  9  1  0  0  0  0
  8 35  1  0  0  0  0
  9 10  1  0  0  0  0
  9 27  2  0  0  0  0
 10 11  2  0  0  0  0
 11 12  1  0  0  0  0
 11 36  1  0  0  0  0
 12 13  2  0  0  0  0
 12 37  1  0  0  0  0
 13 14  1  0  0  0  0
 13 27  1  0  0  0  0
 14 15  1  0  0  0  0
 14 16  1  0  0  0  0
 15 38  1  0  0  0  0
 15 39  1  0  0  0  0
 15 40  1  0  0  0  0
 16 17  1  0  0  0  0
 16 26  2  0  0  0  0
 17 18  2  0  0  0  0
 17 41  1  0  0  0  0
 18 19  1  0  0  0  0
 18 42  1  0  0  0  0
 19 20  2  0  0  0  0
 19 25  1  0  0  0  0
 20 21  1  0  0  0  0
 20 22  1  0  0  0  0
 21 43  1  0  0  0  0
 21 44  1  0  0  0  0
 21 45  1  0  0  0  0
 22 23  1  0  0  0  0
 22 24  1  0  0  0  0
 23 46  1  0  0  0  0
 23 47  1  0  0  0  0
 23 48  1  0  0  0  0
 24 25  2  0  0  0  0
 25 26  1  0  0  0  0
 26 49  1  0  0  0  0
 28 50  1  0  0  0  0
M  END
$$$$
