CHEMBL296475
 OpenBabel04072215363D

 36 38  0  0  0  0  0  0  0  0999 V2000
   -2.2856    1.0912    0.9588 C   0  0  0  0  0  0  0  0  0  0  0  0
   -1.1194    0.3508    0.3745 C   0  0  0  0  0  0  0  0  0  0  0  0
   -0.0962    1.0231   -0.3054 C   0  0  0  0  0  0  0  0  0  0  0  0
    0.9809    0.3141   -0.8453 C   0  0  0  0  0  0  0  0  0  0  0  0
    2.0842    1.0054   -1.5861 C   0  0  0  0  0  0  0  0  0  0  0  0
    1.0250   -1.0759   -0.6941 C   0  0  0  0  0  0  0  0  0  0  0  0
    0.0095   -1.7742   -0.0306 C   0  0  0  0  0  0  0  0  0  0  0  0
    0.0472   -3.1695    0.1134 N   0  0  0  0  0  0  0  0  0  0  0  0
    1.1772   -3.9826    0.1122 C   0  0  0  0  0  0  0  0  0  0  0  0
    2.3334   -3.5191    0.6092 N   0  0  0  0  0  0  0  0  0  0  0  0
    3.3585   -4.3745    0.7225 C   0  0  0  0  0  0  0  0  0  0  0  0
    3.2878   -5.6834    0.3369 C   0  0  0  0  0  0  0  0  0  0  0  0
    2.0859   -6.0686   -0.2160 C   0  0  0  0  0  0  0  0  0  0  0  0
    1.9240   -7.3946   -0.6974 N   0  0  0  0  0  0  0  0  0  0  0  0
    2.8529   -8.4131   -0.6422 C   0  0  0  0  0  0  0  0  0  0  0  0
    2.2536   -9.5021   -1.2276 C   0  0  0  0  0  0  0  0  0  0  0  0
    0.9943   -9.1901   -1.6459 N   0  0  0  0  0  0  0  0  0  0  0  0
    0.8053   -7.9157   -1.3298 C   0  0  0  0  0  0  0  0  0  0  0  0
   -0.3817   -7.1929   -1.6521 C   0  0  0  0  0  0  0  0  0  0  0  0
   -1.3394   -6.5801   -1.9191 N   0  0  0  0  0  0  0  0  0  0  0  0
    1.0301   -5.2367   -0.3216 N   0  0  0  0  0  0  0  0  0  0  0  0
   -1.0576   -1.0457    0.5033 C   0  0  0  0  0  0  0  0  0  0  0  0
   -2.2117    2.1699    0.7877 H   0  0  0  0  0  0  0  0  0  0  0  0
   -2.3360    0.9229    2.0395 H   0  0  0  0  0  0  0  0  0  0  0  0
   -3.2144    0.7395    0.4984 H   0  0  0  0  0  0  0  0  0  0  0  0
   -0.1381    2.1040   -0.4195 H   0  0  0  0  0  0  0  0  0  0  0  0
    1.9092    2.0835   -1.6500 H   0  0  0  0  0  0  0  0  0  0  0  0
    2.1536    0.6147   -2.6071 H   0  0  0  0  0  0  0  0  0  0  0  0
    3.0393    0.8454   -1.0754 H   0  0  0  0  0  0  0  0  0  0  0  0
    1.8621   -1.6236   -1.1220 H   0  0  0  0  0  0  0  0  0  0  0  0
   -0.7584   -3.6629   -0.2505 H   0  0  0  0  0  0  0  0  0  0  0  0
    4.2624   -3.9593    1.1562 H   0  0  0  0  0  0  0  0  0  0  0  0
    4.1413   -6.3296    0.4704 H   0  0  0  0  0  0  0  0  0  0  0  0
    3.8322   -8.3050   -0.2022 H   0  0  0  0  0  0  0  0  0  0  0  0
    2.6753  -10.4880   -1.3687 H   0  0  0  0  0  0  0  0  0  0  0  0
   -1.8440   -1.5608    1.0509 H   0  0  0  0  0  0  0  0  0  0  0  0
  1  2  1  0  0  0  0
  1 23  1  0  0  0  0
  1 24  1  0  0  0  0
  1 25  1  0  0  0  0
  2  3  1  0  0  0  0
  2 22  2  0  0  0  0
  3  4  2  0  0  0  0
  3 26  1  0  0  0  0
  4  5  1  0  0  0  0
  4  6  1  0  0  0  0
  5 27  1  0  0  0  0
  5 28  1  0  0  0  0
  5 29  1  0  0  0  0
  6  7  2  0  0  0  0
  6 30  1  0  0  0  0
  7  8  1  0  0  0  0
  7 22  1  0  0  0  0
  8  9  1  0  0  0  0
  8 31  1  0  0  0  0
  9 10  1  0  0  0  0
  9 21  2  0  0  0  0
 10 11  2  0  0  0  0
 11 12  1  0  0  0  0
 11 32  1  0  0  0  0
 12 13  2  0  0  0  0
 12 33  1  0  0  0  0
 13 14  1  0  0  0  0
 13 21  1  0  0  0  0
 14 15  1  0  0  0  0
 14 18  1  0  0  0  0
 15 16  2  0  0  0  0
 15 34  1  0  0  0  0
 16 17  1  0  0  0  0
 16 35  1  0  0  0  0
 17 18  2  0  0  0  0
 18 19  1  0  0  0  0
 19 20  3  0  0  0  0
 22 36  1  0  0  0  0
M  END
$$$$
