CHEMBL3965764
 OpenBabel04072215373D

 60 64  0  0  0  0  0  0  0  0999 V2000
    7.0552   -2.0534   -1.7361 C   0  0  0  0  0  0  0  0  0  0  0  0
    6.6637   -0.5756   -1.7386 C   0  0  0  0  0  0  0  0  0  0  0  0
    5.5012   -0.2257   -0.9463 N   0  0  0  0  0  0  0  0  0  0  0  0
    4.8996   -1.2077   -0.2306 N   0  0  0  0  0  0  0  0  0  0  0  0
    3.8828   -0.6190    0.3949 C   0  0  0  0  0  0  0  0  0  0  0  0
    2.9804   -1.3716    1.3048 C   0  0  0  0  0  0  0  0  0  0  0  0
    3.8323    0.7324    0.0665 C   0  0  0  0  0  0  0  0  0  0  0  0
    4.8916    1.0155   -0.7999 C   0  0  0  0  0  0  0  0  0  0  0  0
    5.1258    2.3476   -1.3571 C   0  0  0  0  0  0  0  0  0  0  0  0
    4.3329    3.2393   -1.0779 O   0  0  0  0  0  0  0  0  0  0  0  0
    6.2505    2.5904   -2.1618 N   0  0  0  0  0  0  0  0  0  0  0  0
    6.6311    3.8332   -2.7632 C   0  0  0  0  0  0  0  0  0  0  0  0
    5.8584    4.9951   -2.6817 C   0  0  0  0  0  0  0  0  0  0  0  0
    6.2628    6.1877   -3.2865 C   0  0  0  0  0  0  0  0  0  0  0  0
    7.4768    6.2466   -3.9561 C   0  0  0  0  0  0  0  0  0  0  0  0
    8.3081    5.1237   -3.9964 C   0  0  0  0  0  0  0  0  0  0  0  0
    9.6061    5.4198   -4.3485 O   0  0  0  0  0  0  0  0  0  0  0  0
   10.3821    4.6646   -5.1906 C   0  0  0  0  0  0  0  0  0  0  0  0
    9.9226    3.7143   -6.0905 C   0  0  0  0  0  0  0  0  0  0  0  0
   10.8020    3.1863   -7.0498 C   0  0  0  0  0  0  0  0  0  0  0  0
   12.1888    3.3022   -6.8539 C   0  0  0  0  0  0  0  0  0  0  0  0
   13.3764    2.6397   -7.2957 C   0  0  0  0  0  0  0  0  0  0  0  0
   13.4058    1.3845   -7.9989 C   0  0  0  0  0  0  0  0  0  0  0  0
   14.5164    0.6612   -8.2258 C   0  0  0  0  0  0  0  0  0  0  0  0
   14.5642   -0.6212   -8.8456 C   0  0  0  0  0  0  0  0  0  0  0  0
   15.6982   -1.3608   -9.0740 C   0  0  0  0  0  0  0  0  0  0  0  0
   15.2594   -2.5086   -9.6889 N   0  0  0  0  0  0  0  0  0  0  0  0
   13.8881   -2.4088   -9.8104 C   0  0  0  0  0  0  0  0  0  0  0  0
   13.0823   -3.4837  -10.4426 C   0  0  0  0  0  0  0  0  0  0  0  0
   13.4508   -1.2769   -9.3041 N   0  0  0  0  0  0  0  0  0  0  0  0
   14.4703    3.2694   -6.8353 N   0  0  0  0  0  0  0  0  0  0  0  0
   13.9851    4.2788   -6.0911 N   0  0  0  0  0  0  0  0  0  0  0  0
   12.6259    4.2795   -5.9652 C   0  0  0  0  0  0  0  0  0  0  0  0
   11.7379    5.0489   -5.2032 C   0  0  0  0  0  0  0  0  0  0  0  0
    7.8798    3.9086   -3.4292 C   0  0  0  0  0  0  0  0  0  0  0  0
    7.9704   -2.1981   -2.3187 H   0  0  0  0  0  0  0  0  0  0  0  0
    6.2707   -2.6760   -2.1844 H   0  0  0  0  0  0  0  0  0  0  0  0
    7.2453   -2.4229   -0.7207 H   0  0  0  0  0  0  0  0  0  0  0  0
    6.4519   -0.2642   -2.7681 H   0  0  0  0  0  0  0  0  0  0  0  0
    7.4948    0.0137   -1.3372 H   0  0  0  0  0  0  0  0  0  0  0  0
    3.2512   -2.4306    1.3648 H   0  0  0  0  0  0  0  0  0  0  0  0
    1.9420   -1.3089    0.9599 H   0  0  0  0  0  0  0  0  0  0  0  0
    3.0242   -0.9559    2.3179 H   0  0  0  0  0  0  0  0  0  0  0  0
    3.1094    1.4752    0.4233 H   0  0  0  0  0  0  0  0  0  0  0  0
    6.8862    1.8273   -2.3187 H   0  0  0  0  0  0  0  0  0  0  0  0
    4.9269    5.0322   -2.1257 H   0  0  0  0  0  0  0  0  0  0  0  0
    5.6397    7.0774   -3.2043 H   0  0  0  0  0  0  0  0  0  0  0  0
    7.8086    7.1876   -4.3901 H   0  0  0  0  0  0  0  0  0  0  0  0
    8.8796    3.4155   -6.1166 H   0  0  0  0  0  0  0  0  0  0  0  0
   10.4090    2.7238   -7.9485 H   0  0  0  0  0  0  0  0  0  0  0  0
   12.4508    0.9615   -8.3053 H   0  0  0  0  0  0  0  0  0  0  0  0
   15.4687    1.0609   -7.8832 H   0  0  0  0  0  0  0  0  0  0  0  0
   16.7440   -1.1927   -8.8595 H   0  0  0  0  0  0  0  0  0  0  0  0
   15.8381   -3.2795  -10.0057 H   0  0  0  0  0  0  0  0  0  0  0  0
   13.7071   -4.3249  -10.7621 H   0  0  0  0  0  0  0  0  0  0  0  0
   12.5642   -3.0961  -11.3260 H   0  0  0  0  0  0  0  0  0  0  0  0
   12.3364   -3.8719   -9.7397 H   0  0  0  0  0  0  0  0  0  0  0  0
   14.6478    4.9025   -5.6472 H   0  0  0  0  0  0  0  0  0  0  0  0
   12.0826    5.8865   -4.6056 H   0  0  0  0  0  0  0  0  0  0  0  0
    8.5466    3.0530   -3.4548 H   0  0  0  0  0  0  0  0  0  0  0  0
  1  2  1  0  0  0  0
  1 36  1  0  0  0  0
  1 37  1  0  0  0  0
  1 38  1  0  0  0  0
  2  3  1  0  0  0  0
  2 39  1  0  0  0  0
  2 40  1  0  0  0  0
  3  4  1  0  0  0  0
  3  8  1  0  0  0  0
  4  5  2  0  0  0  0
  5  6  1  0  0  0  0
  5  7  1  0  0  0  0
  6 41  1  0  0  0  0
  6 42  1  0  0  0  0
  6 43  1  0  0  0  0
  7  8  2  0  0  0  0
  7 44  1  0  0  0  0
  8  9  1  0  0  0  0
  9 10  2  0  0  0  0
  9 11  1  0  0  0  0
 11 12  1  0  0  0  0
 11 45  1  0  0  0  0
 12 13  1  0  0  0  0
 12 35  2  0  0  0  0
 13 14  2  0  0  0  0
 13 46  1  0  0  0  0
 14 15  1  0  0  0  0
 14 47  1  0  0  0  0
 15 16  2  0  0  0  0
 15 48  1  0  0  0  0
 16 17  1  0  0  0  0
 16 35  1  0  0  0  0
 17 18  1  0  0  0  0
 18 19  1  0  0  0  0
 18 34  2  0  0  0  0
 19 20  2  0  0  0  0
 19 49  1  0  0  0  0
 20 21  1  0  0  0  0
 20 50  1  0  0  0  0
 21 22  1  0  0  0  0
 21 33  2  0  0  0  0
 22 23  1  0  0  0  0
 22 31  2  0  0  0  0
 23 24  2  0  0  0  0
 23 51  1  0  0  0  0
 24 25  1  0  0  0  0
 24 52  1  0  0  0  0
 25 26  2  0  0  0  0
 25 30  1  0  0  0  0
 26 27  1  0  0  0  0
 26 53  1  0  0  0  0
 27 28  1  0  0  0  0
 27 54  1  0  0  0  0
 28 29  1  0  0  0  0
 28 30  2  0  0  0  0
 29 55  1  0  0  0  0
 29 56  1  0  0  0  0
 29 57  1  0  0  0  0
 31 32  1  0  0  0  0
 32 33  1  0  0  0  0
 32 58  1  0  0  0  0
 33 34  1  0  0  0  0
 34 59  1  0  0  0  0
 35 60  1  0  0  0  0
M  END
$$$$
