CHEMBL4069365
 OpenBabel04072215383D

 48 51  0  0  0  0  0  0  0  0999 V2000
    0.9394   -0.1062    0.0475 C   0  0  0  0  0  0  0  0  0  0  0  0
    2.4813   -0.1982   -0.0166 C   0  0  0  0  0  0  0  0  0  0  0  0
    2.9087    1.0954    0.7563 C   0  0  0  0  0  0  0  0  0  0  0  0
    2.9349   -0.1040   -1.3959 O   0  0  0  0  0  0  0  0  0  0  0  0
    2.2674   -0.9513   -2.3452 C   0  0  0  0  0  0  0  0  0  0  0  0
    2.3540   -2.4702   -2.1292 C   0  0  0  0  0  0  0  0  0  0  0  0
    2.8333   -3.2453   -2.9559 O   0  0  0  0  0  0  0  0  0  0  0  0
    1.8425   -2.9622   -0.9513 N   0  0  0  0  0  0  0  0  0  0  0  0
    2.6137   -2.7733    0.2071 C   0  0  0  0  0  0  0  0  0  0  0  0
    3.0983   -3.9741    0.7859 C   0  0  0  0  0  0  0  0  0  0  0  0
    4.0684   -3.9679    1.7907 C   0  0  0  0  0  0  0  0  0  0  0  0
    4.6836   -5.1506    2.2596 N   0  0  0  0  0  0  0  0  0  0  0  0
    4.1484   -6.4629    2.2560 C   0  0  0  0  0  0  0  0  0  0  0  0
    5.1228   -7.4137    2.1178 N   0  0  0  0  0  0  0  0  0  0  0  0
    4.7173   -8.6413    1.8636 C   0  0  0  0  0  0  0  0  0  0  0  0
    5.3992   -9.8129    1.7150 N   0  0  0  0  0  0  0  0  0  0  0  0
    6.5974  -10.1019    2.4071 C   0  0  0  0  0  0  0  0  0  0  0  0
    7.1389  -11.4914    2.0907 C   0  0  0  0  0  0  0  0  0  0  0  0
    6.3449  -12.1639    1.2203 F   0  0  0  0  0  0  0  0  0  0  0  0
    8.3730  -11.4346    1.5450 F   0  0  0  0  0  0  0  0  0  0  0  0
    7.2161  -12.2204    3.2252 F   0  0  0  0  0  0  0  0  0  0  0  0
    3.4030   -8.8582    1.8163 C   0  0  0  0  0  0  0  0  0  0  0  0
    3.0792  -10.0967    1.6030 O   0  0  0  0  0  0  0  0  0  0  0  0
    1.7137  -10.3000    1.7765 C   0  0  0  0  0  0  0  0  0  0  0  0
    1.3095   -8.9931    1.9292 C   0  0  0  0  0  0  0  0  0  0  0  0
    2.4022   -8.0073    2.0568 C   0  0  0  0  0  0  0  0  0  0  0  0
    2.7422   -6.6849    2.2910 N   0  0  0  0  0  0  0  0  0  0  0  0
    4.4738   -2.7031    2.2344 C   0  0  0  0  0  0  0  0  0  0  0  0
    3.9740   -1.4985    1.6763 C   0  0  0  0  0  0  0  0  0  0  0  0
    3.0309   -1.4952    0.6308 C   0  0  0  0  0  0  0  0  0  0  0  0
    0.5899    0.8421   -0.3853 H   0  0  0  0  0  0  0  0  0  0  0  0
    0.5827   -0.1709    1.0783 H   0  0  0  0  0  0  0  0  0  0  0  0
    0.4341   -0.8881   -0.5156 H   0  0  0  0  0  0  0  0  0  0  0  0
    2.4793    2.0032    0.3070 H   0  0  0  0  0  0  0  0  0  0  0  0
    3.9895    1.2581    0.7963 H   0  0  0  0  0  0  0  0  0  0  0  0
    2.5333    1.0664    1.7913 H   0  0  0  0  0  0  0  0  0  0  0  0
    2.6532   -0.7530   -3.3599 H   0  0  0  0  0  0  0  0  0  0  0  0
    1.2132   -0.6687   -2.4169 H   0  0  0  0  0  0  0  0  0  0  0  0
    0.8350   -3.0034   -0.8350 H   0  0  0  0  0  0  0  0  0  0  0  0
    2.7656   -4.9178    0.3548 H   0  0  0  0  0  0  0  0  0  0  0  0
    5.7020   -5.1434    2.3641 H   0  0  0  0  0  0  0  0  0  0  0  0
    4.9330  -10.5463    1.1704 H   0  0  0  0  0  0  0  0  0  0  0  0
    6.3953  -10.0158    3.4777 H   0  0  0  0  0  0  0  0  0  0  0  0
    7.2987   -9.3454    2.0733 H   0  0  0  0  0  0  0  0  0  0  0  0
    2.0889  -11.3399    1.6473 H   0  0  0  0  0  0  0  0  0  0  0  0
    0.2453   -8.7539    1.9811 H   0  0  0  0  0  0  0  0  0  0  0  0
    5.2267   -2.6227    3.0133 H   0  0  0  0  0  0  0  0  0  0  0  0
    4.3819   -0.5786    2.0910 H   0  0  0  0  0  0  0  0  0  0  0  0
  1  2  1  0  0  0  0
  1 31  1  0  0  0  0
  1 32  1  0  0  0  0
  1 33  1  0  0  0  0
  2  3  1  0  0  0  0
  2  4  1  0  0  0  0
  2 30  1  0  0  0  0
  3 34  1  0  0  0  0
  3 35  1  0  0  0  0
  3 36  1  0  0  0  0
  4  5  1  0  0  0  0
  5  6  1  0  0  0  0
  5 37  1  0  0  0  0
  5 38  1  0  0  0  0
  6  7  2  0  0  0  0
  6  8  1  0  0  0  0
  8  9  1  0  0  0  0
  8 39  1  0  0  0  0
  9 10  1  0  0  0  0
  9 30  2  0  0  0  0
 10 11  2  0  0  0  0
 10 40  1  0  0  0  0
 11 12  1  0  0  0  0
 11 28  1  0  0  0  0
 12 13  1  0  0  0  0
 12 41  1  0  0  0  0
 13 14  1  0  0  0  0
 13 27  2  0  0  0  0
 14 15  2  0  0  0  0
 15 16  1  0  0  0  0
 15 22  1  0  0  0  0
 16 17  1  0  0  0  0
 16 42  1  0  0  0  0
 17 18  1  0  0  0  0
 17 43  1  0  0  0  0
 17 44  1  0  0  0  0
 18 19  1  0  0  0  0
 18 20  1  0  0  0  0
 18 21  1  0  0  0  0
 22 23  1  0  0  0  0
 22 26  2  0  0  0  0
 23 24  1  0  0  0  0
 24 25  2  0  0  0  0
 24 45  1  0  0  0  0
 25 26  1  0  0  0  0
 25 46  1  0  0  0  0
 26 27  1  0  0  0  0
 28 29  2  0  0  0  0
 28 47  1  0  0  0  0
 29 30  1  0  0  0  0
 29 48  1  0  0  0  0
M  END
$$$$
