CHEMBL3974206
 OpenBabel04072215373D

 58 60  0  0  0  0  0  0  0  0999 V2000
    1.0350   -5.1215   -0.4131 C   0  0  0  0  0  0  0  0  0  0  0  0
    2.1405   -4.9001    0.3890 O   0  0  0  0  0  0  0  0  0  0  0  0
    2.8465   -3.7394    0.4480 C   0  0  0  0  0  0  0  0  0  0  0  0
    2.4499   -2.5941   -0.2625 C   0  0  0  0  0  0  0  0  0  0  0  0
    3.1917   -1.4252   -0.1740 C   0  0  0  0  0  0  0  0  0  0  0  0
    2.8109   -0.3310   -0.8616 F   0  0  0  0  0  0  0  0  0  0  0  0
    4.3354   -1.3723    0.6125 C   0  0  0  0  0  0  0  0  0  0  0  0
    4.7682   -2.4940    1.3500 C   0  0  0  0  0  0  0  0  0  0  0  0
    5.9704   -2.3967    2.1564 N   0  0  0  0  0  0  0  0  0  0  0  0
    6.7701   -3.5873    2.4800 C   0  0  0  0  0  0  0  0  0  0  0  0
    6.7220   -3.7949    4.0014 C   0  0  0  0  0  0  0  0  0  0  0  0
    7.5276   -4.9248    4.4867 N   0  0  0  0  0  0  0  0  0  0  0  0
    7.5052   -4.9706    5.9705 C   0  0  0  0  0  0  0  0  0  0  0  0
    6.0847   -5.2194    6.5144 C   0  0  0  0  0  0  0  0  0  0  0  0
    8.4327   -6.0750    6.4895 C   0  0  0  0  0  0  0  0  0  0  0  0
    6.3635   -1.1342    2.7459 C   0  0  0  0  0  0  0  0  0  0  0  0
    5.3973   -0.1843    3.1584 C   0  0  0  0  0  0  0  0  0  0  0  0
    5.7731    1.0006    3.8004 C   0  0  0  0  0  0  0  0  0  0  0  0
    7.1217    1.2614    4.0452 C   0  0  0  0  0  0  0  0  0  0  0  0
    7.5096    2.3973    4.6816 N   0  0  0  0  0  0  0  0  0  0  0  0
    8.8226    2.6523    4.9304 C   0  0  0  0  0  0  0  0  0  0  0  0
    9.8006    1.7270    4.5213 C   0  0  0  0  0  0  0  0  0  0  0  0
   11.2388    1.9507    4.7544 C   0  0  0  0  0  0  0  0  0  0  0  0
   12.2739    1.1100    4.3820 C   0  0  0  0  0  0  0  0  0  0  0  0
   13.4424    1.6613    4.7605 N   0  0  0  0  0  0  0  0  0  0  0  0
   13.1770    2.8138    5.3562 N   0  0  0  0  0  0  0  0  0  0  0  0
   11.8488    3.0242    5.3701 C   0  0  0  0  0  0  0  0  0  0  0  0
    9.4047    0.5921    3.8890 N   0  0  0  0  0  0  0  0  0  0  0  0
    8.0956    0.3341    3.6428 C   0  0  0  0  0  0  0  0  0  0  0  0
    7.7237   -0.8474    3.0063 C   0  0  0  0  0  0  0  0  0  0  0  0
    4.0060   -3.6834    1.2475 C   0  0  0  0  0  0  0  0  0  0  0  0
    1.6008    1.1887   -3.0906 Cl  0  0  0  0  0  0  0  0  0  0  0  0
    0.6503   -6.1464   -0.2391 H   0  0  0  0  0  0  0  0  0  0  0  0
    1.3162   -5.0249   -1.4843 H   0  0  0  0  0  0  0  0  0  0  0  0
    0.2255   -4.3985   -0.1716 H   0  0  0  0  0  0  0  0  0  0  0  0
    1.5673   -2.5944   -0.8895 H   0  0  0  0  0  0  0  0  0  0  0  0
    4.8860   -0.4436    0.6310 H   0  0  0  0  0  0  0  0  0  0  0  0
    7.8126   -3.4610    2.1205 H   0  0  0  0  0  0  0  0  0  0  0  0
    6.4071   -4.4996    1.9687 H   0  0  0  0  0  0  0  0  0  0  0  0
    5.6520   -3.9625    4.2269 H   0  0  0  0  0  0  0  0  0  0  0  0
    7.0647   -2.8743    4.5186 H   0  0  0  0  0  0  0  0  0  0  0  0
    8.5191   -4.7571    4.1871 H   0  0  0  0  0  0  0  0  0  0  0  0
    7.8805   -4.0078    6.3887 H   0  0  0  0  0  0  0  0  0  0  0  0
    5.6672   -6.1536    6.0831 H   0  0  0  0  0  0  0  0  0  0  0  0
    5.4027   -4.3757    6.2893 H   0  0  0  0  0  0  0  0  0  0  0  0
    6.1033   -5.2994    7.6206 H   0  0  0  0  0  0  0  0  0  0  0  0
    8.1105   -7.0683    6.1138 H   0  0  0  0  0  0  0  0  0  0  0  0
    8.4090   -6.0901    7.6027 H   0  0  0  0  0  0  0  0  0  0  0  0
    9.4808   -5.8846    6.1775 H   0  0  0  0  0  0  0  0  0  0  0  0
    4.3401   -0.3681    3.0200 H   0  0  0  0  0  0  0  0  0  0  0  0
    5.0137    1.7042    4.1195 H   0  0  0  0  0  0  0  0  0  0  0  0
    9.0924    3.5665    5.4394 H   0  0  0  0  0  0  0  0  0  0  0  0
   12.1845    0.1618    3.8683 H   0  0  0  0  0  0  0  0  0  0  0  0
   13.9012    3.4536    5.7458 H   0  0  0  0  0  0  0  0  0  0  0  0
   11.3717    3.8944    5.7983 H   0  0  0  0  0  0  0  0  0  0  0  0
    8.5092   -1.5319    2.7264 H   0  0  0  0  0  0  0  0  0  0  0  0
    4.2763   -4.5754    1.7954 H   0  0  0  0  0  0  0  0  0  0  0  0
    1.7451    1.6574   -1.8032 H   0  0  0  0  0  0  0  0  0  0  0  0
  1  2  1  0  0  0  0
  1 33  1  0  0  0  0
  1 34  1  0  0  0  0
  1 35  1  0  0  0  0
  2  3  1  0  0  0  0
  3  4  1  0  0  0  0
  3 31  2  0  0  0  0
  4  5  2  0  0  0  0
  4 36  1  0  0  0  0
  5  6  1  0  0  0  0
  5  7  1  0  0  0  0
  7  8  2  0  0  0  0
  7 37  1  0  0  0  0
  8  9  1  0  0  0  0
  8 31  1  0  0  0  0
  9 10  1  0  0  0  0
  9 16  1  0  0  0  0
 10 11  1  0  0  0  0
 10 38  1  0  0  0  0
 10 39  1  0  0  0  0
 11 12  1  0  0  0  0
 11 40  1  0  0  0  0
 11 41  1  0  0  0  0
 12 13  1  0  0  0  0
 12 42  1  0  0  0  0
 13 14  1  0  0  0  0
 13 15  1  0  0  0  0
 13 43  1  0  0  0  0
 14 44  1  0  0  0  0
 14 45  1  0  0  0  0
 14 46  1  0  0  0  0
 15 47  1  0  0  0  0
 15 48  1  0  0  0  0
 15 49  1  0  0  0  0
 16 17  1  0  0  0  0
 16 30  2  0  0  0  0
 17 18  2  0  0  0  0
 17 50  1  0  0  0  0
 18 19  1  0  0  0  0
 18 51  1  0  0  0  0
 19 20  1  0  0  0  0
 19 29  2  0  0  0  0
 20 21  2  0  0  0  0
 21 22  1  0  0  0  0
 21 52  1  0  0  0  0
 22 23  1  0  0  0  0
 22 28  2  0  0  0  0
 23 24  1  0  0  0  0
 23 27  2  0  0  0  0
 24 25  2  0  0  0  0
 24 53  1  0  0  0  0
 25 26  1  0  0  0  0
 26 27  1  0  0  0  0
 26 54  1  0  0  0  0
 27 55  1  0  0  0  0
 28 29  1  0  0  0  0
 29 30  1  0  0  0  0
 30 56  1  0  0  0  0
 31 57  1  0  0  0  0
 32 58  1  0  0  0  0
M  END
$$$$
