CHEMBL1084452
 OpenBabel04072215363D

 74 80  0  0  1  0  0  0  0  0999 V2000
   -7.9759   10.5988    3.8372 C   0  0  0  0  0  0  0  0  0  0  0  0
   -8.3021    9.7765    4.9856 N   0  0  0  0  0  0  0  0  0  0  0  0
   -7.7133   10.2703    6.2235 C   0  0  0  0  0  0  0  0  0  0  0  0
   -8.0318    9.1641    7.2082 C   0  0  0  0  0  0  0  0  0  0  0  0
   -8.1803    7.9035    6.3624 C   0  0  0  0  0  0  0  0  0  0  0  0
   -8.0089    8.3370    4.8974 C   0  0  3  0  0  0  0  0  0  0  0  0
   -6.6445    7.9064    4.3057 C   0  0  0  0  0  0  0  0  0  0  0  0
   -6.5072    6.3675    4.2226 C   0  0  0  0  0  0  0  0  0  0  0  0
   -5.1855    6.0035    3.7311 N   0  0  0  0  0  0  0  0  0  0  0  0
   -4.9196    4.6338    3.6671 C   0  0  0  0  0  0  0  0  0  0  0  0
   -3.6319    4.2828    3.7284 N   0  0  0  0  0  0  0  0  0  0  0  0
   -3.3450    2.9782    3.6323 C   0  0  0  0  0  0  0  0  0  0  0  0
   -4.2810    1.9965    3.4057 C   0  0  0  0  0  0  0  0  0  0  0  0
   -5.5858    2.4244    3.2983 C   0  0  0  0  0  0  0  0  0  0  0  0
   -6.7134    1.5409    2.9082 C   0  0  0  0  0  0  0  0  0  0  0  0
   -7.7527    2.0979    2.1245 C   0  0  0  0  0  0  0  0  0  0  0  0
   -8.8431    1.3432    1.6994 C   0  0  0  0  0  0  0  0  0  0  0  0
   -8.9079    0.0309    2.1010 C   0  0  0  0  0  0  0  0  0  0  0  0
   -7.9591   -0.5513    2.8542 N   0  0  0  0  0  0  0  0  0  0  0  0
   -6.8573    0.1737    3.2023 C   0  0  0  0  0  0  0  0  0  0  0  0
   -5.8376   -0.5165    3.8731 O   0  0  0  0  0  0  0  0  0  0  0  0
   -5.8062   -1.9071    3.7467 C   0  0  0  0  0  0  0  0  0  0  0  0
   -6.0208   -2.5169    2.5123 C   0  0  0  0  0  0  0  0  0  0  0  0
   -6.1497   -3.8981    2.4218 C   0  0  0  0  0  0  0  0  0  0  0  0
   -6.0123   -4.7239    3.5450 C   0  0  0  0  0  0  0  0  0  0  0  0
   -6.3031   -6.1195    3.4558 N   0  0  0  0  0  0  0  0  0  0  0  0
   -7.1529   -6.6878    2.5604 C   0  0  0  0  0  0  0  0  0  0  0  0
   -7.8873   -6.1470    1.6147 N   0  0  0  0  0  0  0  0  0  0  0  0
   -8.5495   -7.1775    1.0029 C   0  0  0  0  0  0  0  0  0  0  0  0
   -9.4469   -7.1502   -0.0730 C   0  0  0  0  0  0  0  0  0  0  0  0
   -9.9614   -8.3629   -0.5459 C   0  0  0  0  0  0  0  0  0  0  0  0
   -9.5967   -9.5742    0.0487 C   0  0  0  0  0  0  0  0  0  0  0  0
   -8.7174   -9.6178    1.1387 C   0  0  0  0  0  0  0  0  0  0  0  0
   -8.2162   -8.3930    1.5847 C   0  0  0  0  0  0  0  0  0  0  0  0
   -7.3493   -8.0491    2.5911 N   0  0  0  0  0  0  0  0  0  0  0  0
   -5.5518   -4.1329    4.7634 C   0  0  0  0  0  0  0  0  0  0  0  0
   -5.1494   -4.8996    5.8897 C   0  0  0  0  0  0  0  0  0  0  0  0
   -4.7222   -4.3080    7.0773 C   0  0  0  0  0  0  0  0  0  0  0  0
   -4.6962   -2.9270    7.1851 C   0  0  0  0  0  0  0  0  0  0  0  0
   -5.0759   -2.1379    6.0976 C   0  0  0  0  0  0  0  0  0  0  0  0
   -5.4796   -2.7066    4.8707 C   0  0  0  0  0  0  0  0  0  0  0  0
   -5.9068    3.7455    3.4484 N   0  0  0  0  0  0  0  0  0  0  0  0
   -8.4104   11.6003    3.9652 H   0  0  0  0  0  0  0  0  0  0  0  0
   -8.4109   10.1863    2.9238 H   0  0  0  0  0  0  0  0  0  0  0  0
   -6.8974   10.7214    3.6935 H   0  0  0  0  0  0  0  0  0  0  0  0
   -8.1555   11.2211    6.5430 H   0  0  0  0  0  0  0  0  0  0  0  0
   -6.6291   10.4040    6.1356 H   0  0  0  0  0  0  0  0  0  0  0  0
   -8.9702    9.3669    7.7373 H   0  0  0  0  0  0  0  0  0  0  0  0
   -7.2412    9.0574    7.9579 H   0  0  0  0  0  0  0  0  0  0  0  0
   -9.1802    7.4796    6.5150 H   0  0  0  0  0  0  0  0  0  0  0  0
   -7.4565    7.1544    6.6917 H   0  0  0  0  0  0  0  0  0  0  0  0
   -8.7933    7.8676    4.2905 H   0  0  0  0  0  0  0  0  0  0  0  0
   -5.8206    8.3267    4.8965 H   0  0  0  0  0  0  0  0  0  0  0  0
   -6.5380    8.3139    3.2917 H   0  0  0  0  0  0  0  0  0  0  0  0
   -7.2963    5.9698    3.5743 H   0  0  0  0  0  0  0  0  0  0  0  0
   -6.6297    5.9300    5.2183 H   0  0  0  0  0  0  0  0  0  0  0  0
   -4.9988    6.3544    2.7979 H   0  0  0  0  0  0  0  0  0  0  0  0
   -2.2911    2.7306    3.7256 H   0  0  0  0  0  0  0  0  0  0  0  0
   -3.9763    0.9690    3.2780 H   0  0  0  0  0  0  0  0  0  0  0  0
   -7.7019    3.1421    1.8186 H   0  0  0  0  0  0  0  0  0  0  0  0
   -9.6185    1.7753    1.0772 H   0  0  0  0  0  0  0  0  0  0  0  0
   -9.7323   -0.6141    1.8118 H   0  0  0  0  0  0  0  0  0  0  0  0
   -6.1755   -1.9274    1.6121 H   0  0  0  0  0  0  0  0  0  0  0  0
   -6.3979   -4.3195    1.4504 H   0  0  0  0  0  0  0  0  0  0  0  0
   -6.2057   -6.5904    4.3423 H   0  0  0  0  0  0  0  0  0  0  0  0
   -9.7196   -6.2047   -0.5280 H   0  0  0  0  0  0  0  0  0  0  0  0
  -10.6475   -8.3578   -1.3894 H   0  0  0  0  0  0  0  0  0  0  0  0
  -10.0041  -10.5032   -0.3456 H   0  0  0  0  0  0  0  0  0  0  0  0
   -8.4379  -10.5591    1.5984 H   0  0  0  0  0  0  0  0  0  0  0  0
   -6.8921   -8.6890    3.2193 H   0  0  0  0  0  0  0  0  0  0  0  0
   -5.1212   -5.9846    5.8532 H   0  0  0  0  0  0  0  0  0  0  0  0
   -4.4043   -4.9297    7.9106 H   0  0  0  0  0  0  0  0  0  0  0  0
   -4.3688   -2.4607    8.1104 H   0  0  0  0  0  0  0  0  0  0  0  0
   -5.0315   -1.0572    6.2089 H   0  0  0  0  0  0  0  0  0  0  0  0
  1  2  1  0  0  0  0
  1 43  1  0  0  0  0
  1 44  1  0  0  0  0
  1 45  1  0  0  0  0
  2  3  1  0  0  0  0
  2  6  1  0  0  0  0
  3  4  1  0  0  0  0
  3 46  1  0  0  0  0
  3 47  1  0  0  0  0
  4  5  1  0  0  0  0
  4 48  1  0  0  0  0
  4 49  1  0  0  0  0
  5  6  1  0  0  0  0
  5 50  1  0  0  0  0
  5 51  1  0  0  0  0
  6  7  1  0  0  0  0
  6 52  1  0  0  0  0
  7  8  1  0  0  0  0
  7 53  1  0  0  0  0
  7 54  1  0  0  0  0
  8  9  1  0  0  0  0
  8 55  1  0  0  0  0
  8 56  1  0  0  0  0
  9 10  1  0  0  0  0
  9 57  1  0  0  0  0
 10 11  1  0  0  0  0
 10 42  2  0  0  0  0
 11 12  2  0  0  0  0
 12 13  1  0  0  0  0
 12 58  1  0  0  0  0
 13 14  2  0  0  0  0
 13 59  1  0  0  0  0
 14 15  1  0  0  0  0
 14 42  1  0  0  0  0
 15 16  1  0  0  0  0
 15 20  2  0  0  0  0
 16 17  2  0  0  0  0
 16 60  1  0  0  0  0
 17 18  1  0  0  0  0
 17 61  1  0  0  0  0
 18 19  2  0  0  0  0
 18 62  1  0  0  0  0
 19 20  1  0  0  0  0
 20 21  1  0  0  0  0
 21 22  1  0  0  0  0
 22 23  1  0  0  0  0
 22 41  2  0  0  0  0
 23 24  2  0  0  0  0
 23 63  1  0  0  0  0
 24 25  1  0  0  0  0
 24 64  1  0  0  0  0
 25 26  1  0  0  0  0
 25 36  2  0  0  0  0
 26 27  1  0  0  0  0
 26 65  1  0  0  0  0
 27 28  2  0  0  0  0
 27 35  1  0  0  0  0
 28 29  1  0  0  0  0
 29 30  1  0  0  0  0
 29 34  2  0  0  0  0
 30 31  2  0  0  0  0
 30 66  1  0  0  0  0
 31 32  1  0  0  0  0
 31 67  1  0  0  0  0
 32 33  2  0  0  0  0
 32 68  1  0  0  0  0
 33 34  1  0  0  0  0
 33 69  1  0  0  0  0
 34 35  1  0  0  0  0
 35 70  1  0  0  0  0
 36 37  1  0  0  0  0
 36 41  1  0  0  0  0
 37 38  2  0  0  0  0
 37 71  1  0  0  0  0
 38 39  1  0  0  0  0
 38 72  1  0  0  0  0
 39 40  2  0  0  0  0
 39 73  1  0  0  0  0
 40 41  1  0  0  0  0
 40 74  1  0  0  0  0
M  END
$$$$
