CHEMBL3114022
 OpenBabel04072215363D

 49 52  0  0  0  0  0  0  0  0999 V2000
   -5.2399   -3.8712    7.1896 C   0  0  0  0  0  0  0  0  0  0  0  0
   -4.6967   -3.1195    6.0109 C   0  0  0  0  0  0  0  0  0  0  0  0
   -3.4725   -2.4478    6.0977 C   0  0  0  0  0  0  0  0  0  0  0  0
   -2.9655   -1.7692    4.9929 C   0  0  0  0  0  0  0  0  0  0  0  0
   -3.6728   -1.7687    3.7911 C   0  0  0  0  0  0  0  0  0  0  0  0
   -4.8864   -2.4579    3.6672 C   0  0  0  0  0  0  0  0  0  0  0  0
   -5.6213   -2.4657    2.4641 N   0  0  0  0  0  0  0  0  0  0  0  0
   -5.0615   -2.4794    1.1788 C   0  0  0  0  0  0  0  0  0  0  0  0
   -3.8579   -3.0422    1.0069 N   0  0  0  0  0  0  0  0  0  0  0  0
   -3.3643   -3.0604   -0.2311 C   0  0  0  0  0  0  0  0  0  0  0  0
   -4.0301   -2.5366   -1.3067 C   0  0  0  0  0  0  0  0  0  0  0  0
   -5.2613   -1.9457   -1.0700 C   0  0  0  0  0  0  0  0  0  0  0  0
   -5.9914   -1.3472   -2.1258 N   0  0  0  0  0  0  0  0  0  0  0  0
   -5.2357   -0.7645   -3.2417 C   0  0  0  0  0  0  0  0  0  0  0  0
   -7.4167   -1.2826   -2.2525 C   0  0  0  0  0  0  0  0  0  0  0  0
   -8.2319   -2.3007   -1.6303 C   0  0  0  0  0  0  0  0  0  0  0  0
   -9.6399   -2.4084   -1.7422 C   0  0  0  0  0  0  0  0  0  0  0  0
  -10.1617   -1.3911   -2.5315 C   0  0  0  0  0  0  0  0  0  0  0  0
  -11.4791   -1.2182   -2.8782 C   0  0  0  0  0  0  0  0  0  0  0  0
  -12.7005   -1.9996   -2.5681 C   0  0  0  0  0  0  0  0  0  0  0  0
  -11.4782   -0.0846   -3.6515 N   0  0  0  0  0  0  0  0  0  0  0  0
  -12.6030    0.5680   -4.2837 C   0  0  0  0  0  0  0  0  0  0  0  0
  -10.2587    0.4607   -3.8362 N   0  0  0  0  0  0  0  0  0  0  0  0
   -9.4201   -0.3364   -3.1577 C   0  0  0  0  0  0  0  0  0  0  0  0
   -8.0256   -0.2541   -3.0235 C   0  0  0  0  0  0  0  0  0  0  0  0
   -5.7775   -1.9362    0.1803 N   0  0  0  0  0  0  0  0  0  0  0  0
   -5.4062   -3.1003    4.7982 C   0  0  0  0  0  0  0  0  0  0  0  0
   -4.5699   -3.7982    8.0534 H   0  0  0  0  0  0  0  0  0  0  0  0
   -5.3496   -4.9322    6.9431 H   0  0  0  0  0  0  0  0  0  0  0  0
   -6.2117   -3.4638    7.4829 H   0  0  0  0  0  0  0  0  0  0  0  0
   -2.9032   -2.4516    7.0239 H   0  0  0  0  0  0  0  0  0  0  0  0
   -2.0147   -1.2480    5.0595 H   0  0  0  0  0  0  0  0  0  0  0  0
   -3.2551   -1.2371    2.9399 H   0  0  0  0  0  0  0  0  0  0  0  0
   -6.4027   -1.8225    2.4554 H   0  0  0  0  0  0  0  0  0  0  0  0
   -2.3900   -3.5260   -0.3357 H   0  0  0  0  0  0  0  0  0  0  0  0
   -3.5907   -2.6233   -2.2895 H   0  0  0  0  0  0  0  0  0  0  0  0
   -4.1499   -0.7889   -3.1133 H   0  0  0  0  0  0  0  0  0  0  0  0
   -5.4587    0.2989   -3.3686 H   0  0  0  0  0  0  0  0  0  0  0  0
   -5.4674   -1.2956   -4.1736 H   0  0  0  0  0  0  0  0  0  0  0  0
   -7.7354   -3.0788   -1.0485 H   0  0  0  0  0  0  0  0  0  0  0  0
  -10.2032   -3.2026   -1.2744 H   0  0  0  0  0  0  0  0  0  0  0  0
  -12.4747   -2.8808   -1.9608 H   0  0  0  0  0  0  0  0  0  0  0  0
  -13.1755   -2.3502   -3.4899 H   0  0  0  0  0  0  0  0  0  0  0  0
  -13.4188   -1.3886   -2.0129 H   0  0  0  0  0  0  0  0  0  0  0  0
  -13.5267    0.0315   -4.0637 H   0  0  0  0  0  0  0  0  0  0  0  0
  -12.4291    0.5791   -5.3631 H   0  0  0  0  0  0  0  0  0  0  0  0
  -12.6664    1.5886   -3.8971 H   0  0  0  0  0  0  0  0  0  0  0  0
   -7.5009    0.5596   -3.4962 H   0  0  0  0  0  0  0  0  0  0  0  0
   -6.3505   -3.6348    4.7193 H   0  0  0  0  0  0  0  0  0  0  0  0
  1  2  1  0  0  0  0
  1 28  1  0  0  0  0
  1 29  1  0  0  0  0
  1 30  1  0  0  0  0
  2  3  1  0  0  0  0
  2 27  2  0  0  0  0
  3  4  2  0  0  0  0
  3 31  1  0  0  0  0
  4  5  1  0  0  0  0
  4 32  1  0  0  0  0
  5  6  2  0  0  0  0
  5 33  1  0  0  0  0
  6  7  1  0  0  0  0
  6 27  1  0  0  0  0
  7  8  1  0  0  0  0
  7 34  1  0  0  0  0
  8  9  1  0  0  0  0
  8 26  2  0  0  0  0
  9 10  2  0  0  0  0
 10 11  1  0  0  0  0
 10 35  1  0  0  0  0
 11 12  2  0  0  0  0
 11 36  1  0  0  0  0
 12 13  1  0  0  0  0
 12 26  1  0  0  0  0
 13 14  1  0  0  0  0
 13 15  1  0  0  0  0
 14 37  1  0  0  0  0
 14 38  1  0  0  0  0
 14 39  1  0  0  0  0
 15 16  1  0  0  0  0
 15 25  2  0  0  0  0
 16 17  2  0  0  0  0
 16 40  1  0  0  0  0
 17 18  1  0  0  0  0
 17 41  1  0  0  0  0
 18 19  2  0  0  0  0
 18 24  1  0  0  0  0
 19 20  1  0  0  0  0
 19 21  1  0  0  0  0
 20 42  1  0  0  0  0
 20 43  1  0  0  0  0
 20 44  1  0  0  0  0
 21 22  1  0  0  0  0
 21 23  1  0  0  0  0
 22 45  1  0  0  0  0
 22 46  1  0  0  0  0
 22 47  1  0  0  0  0
 23 24  2  0  0  0  0
 24 25  1  0  0  0  0
 25 48  1  0  0  0  0
 27 49  1  0  0  0  0
M  END
$$$$
