CHEMBL3967739
 OpenBabel04072215373D

 57 60  0  0  1  0  0  0  0  0999 V2000
    0.8521    0.2518   -0.1267 C   0  0  0  0  0  0  0  0  0  0  0  0
    1.9635   -0.5920   -0.4411 O   0  0  0  0  0  0  0  0  0  0  0  0
    2.7939   -0.1767   -1.4576 C   0  0  0  0  0  0  0  0  0  0  0  0
    2.5783    0.9559   -2.2184 C   0  0  0  0  0  0  0  0  0  0  0  0
    3.5036    1.3137   -3.1953 C   0  0  0  0  0  0  0  0  0  0  0  0
    3.4100    2.4366   -3.9761 O   0  0  0  0  0  0  0  0  0  0  0  0
    2.2742    3.2429   -3.6971 C   0  0  0  0  0  0  0  0  0  0  0  0
    4.6437    0.5377   -3.4109 C   0  0  0  0  0  0  0  0  0  0  0  0
    4.9717   -0.5524   -2.6152 C   0  0  0  0  0  0  0  0  0  0  0  0
    6.2650   -1.1533   -2.7922 N   0  0  0  0  0  0  0  0  0  0  0  0
    6.7673   -2.0184   -1.6193 C   0  0  0  0  0  0  0  0  0  0  0  0
    7.8200   -1.2348   -0.7926 C   0  0  1  0  0  0  0  0  0  0  0  0
    7.2445   -0.0181   -0.2879 O   0  0  0  0  0  0  0  0  0  0  0  0
    8.4180   -1.9555    0.4201 C   0  0  0  0  0  0  0  0  0  0  0  0
    7.4153   -2.3097    1.3677 O   0  0  0  0  0  0  0  0  0  0  0  0
    7.3317   -0.8477   -3.7785 C   0  0  0  0  0  0  0  0  0  0  0  0
    7.9222   -1.9481   -4.2974 C   0  0  0  0  0  0  0  0  0  0  0  0
    9.0729   -1.7287   -4.9985 C   0  0  0  0  0  0  0  0  0  0  0  0
    9.6797   -0.4905   -5.1256 C   0  0  0  0  0  0  0  0  0  0  0  0
   10.9309   -0.7924   -4.9551 N   0  0  0  0  0  0  0  0  0  0  0  0
   11.5383   -0.7649   -6.0894 C   0  0  0  0  0  0  0  0  0  0  0  0
   11.6232    0.3961   -6.7305 C   0  0  0  0  0  0  0  0  0  0  0  0
   12.8279    0.1471   -7.7943 C   0  0  0  0  0  0  0  0  0  0  0  0
   13.5805   -1.1401   -8.0797 C   0  0  0  0  0  0  0  0  0  0  0  0
   14.5010   -1.0853   -9.0442 N   0  0  0  0  0  0  0  0  0  0  0  0
   14.4447    0.1931   -9.4471 N   0  0  0  0  0  0  0  0  0  0  0  0
   15.2114    0.6022  -10.6207 C   0  0  0  0  0  0  0  0  0  0  0  0
   13.5307    0.9467   -8.6877 C   0  0  0  0  0  0  0  0  0  0  0  0
   10.5964    1.3100   -6.2130 N   0  0  0  0  0  0  0  0  0  0  0  0
    9.3207    0.7654   -5.2279 C   0  0  0  0  0  0  0  0  0  0  0  0
    7.9616    0.4935   -4.2526 C   0  0  0  0  0  0  0  0  0  0  0  0
    3.9553   -0.9488   -1.6862 C   0  0  0  0  0  0  0  0  0  0  0  0
    0.3699   -0.1444    0.7708 H   0  0  0  0  0  0  0  0  0  0  0  0
    0.1159    0.2369   -0.9377 H   0  0  0  0  0  0  0  0  0  0  0  0
    1.1612    1.2795    0.1009 H   0  0  0  0  0  0  0  0  0  0  0  0
    1.6893    1.5515   -2.0646 H   0  0  0  0  0  0  0  0  0  0  0  0
    2.3126    4.1284   -4.3303 H   0  0  0  0  0  0  0  0  0  0  0  0
    2.2738    3.5762   -2.6514 H   0  0  0  0  0  0  0  0  0  0  0  0
    1.3594    2.6884   -3.9339 H   0  0  0  0  0  0  0  0  0  0  0  0
    5.2989    0.8294   -4.2223 H   0  0  0  0  0  0  0  0  0  0  0  0
    7.1985   -2.9765   -1.9512 H   0  0  0  0  0  0  0  0  0  0  0  0
    5.9504   -2.3221   -0.9531 H   0  0  0  0  0  0  0  0  0  0  0  0
    8.6603   -0.9813   -1.4411 H   0  0  0  0  0  0  0  0  0  0  0  0
    6.3267   -0.2177   -0.0298 H   0  0  0  0  0  0  0  0  0  0  0  0
    9.1258   -1.2774    0.9216 H   0  0  0  0  0  0  0  0  0  0  0  0
    8.9622   -2.8567    0.1320 H   0  0  0  0  0  0  0  0  0  0  0  0
    6.9393   -1.4889    1.5917 H   0  0  0  0  0  0  0  0  0  0  0  0
    7.6848   -2.9918   -4.1309 H   0  0  0  0  0  0  0  0  0  0  0  0
    9.6790   -2.5456   -5.3040 H   0  0  0  0  0  0  0  0  0  0  0  0
   11.8992   -1.7059   -6.3880 H   0  0  0  0  0  0  0  0  0  0  0  0
   13.4841   -2.1360   -7.6542 H   0  0  0  0  0  0  0  0  0  0  0  0
   15.8674   -0.1996  -10.9949 H   0  0  0  0  0  0  0  0  0  0  0  0
   15.8340    1.4652  -10.3701 H   0  0  0  0  0  0  0  0  0  0  0  0
   14.5128    0.8627  -11.4219 H   0  0  0  0  0  0  0  0  0  0  0  0
   13.4583    1.9856   -8.9087 H   0  0  0  0  0  0  0  0  0  0  0  0
    7.4201    1.3674   -3.8249 H   0  0  0  0  0  0  0  0  0  0  0  0
    3.9888   -1.8726   -1.1139 H   0  0  0  0  0  0  0  0  0  0  0  0
  1  2  1  0  0  0  0
  1 33  1  0  0  0  0
  1 34  1  0  0  0  0
  1 35  1  0  0  0  0
  2  3  1  0  0  0  0
  3  4  1  0  0  0  0
  3 32  2  0  0  0  0
  4  5  2  0  0  0  0
  4 36  1  0  0  0  0
  5  6  1  0  0  0  0
  5  8  1  0  0  0  0
  6  7  1  0  0  0  0
  7 37  1  0  0  0  0
  7 38  1  0  0  0  0
  7 39  1  0  0  0  0
  8  9  2  0  0  0  0
  8 40  1  0  0  0  0
  9 10  1  0  0  0  0
  9 32  1  0  0  0  0
 10 11  1  0  0  0  0
 10 16  1  0  0  0  0
 11 12  1  0  0  0  0
 11 41  1  0  0  0  0
 11 42  1  0  0  0  0
 12 13  1  0  0  0  0
 12 14  1  0  0  0  0
 12 43  1  6  0  0  0
 13 44  1  0  0  0  0
 14 15  1  0  0  0  0
 14 45  1  0  0  0  0
 14 46  1  0  0  0  0
 15 47  1  0  0  0  0
 16 17  1  0  0  0  0
 16 31  2  0  0  0  0
 17 18  2  0  0  0  0
 17 48  1  0  0  0  0
 18 19  1  0  0  0  0
 18 49  1  0  0  0  0
 19 20  1  0  0  0  0
 19 30  2  0  0  0  0
 20 21  2  0  0  0  0
 21 22  1  0  0  0  0
 21 50  1  0  0  0  0
 22 23  1  0  0  0  0
 22 29  2  0  0  0  0
 23 24  1  0  0  0  0
 23 28  2  0  0  0  0
 24 25  2  0  0  0  0
 24 51  1  0  0  0  0
 25 26  1  0  0  0  0
 26 27  1  0  0  0  0
 26 28  1  0  0  0  0
 27 52  1  0  0  0  0
 27 53  1  0  0  0  0
 27 54  1  0  0  0  0
 28 55  1  0  0  0  0
 29 30  1  0  0  0  0
 30 31  1  0  0  0  0
 31 56  1  0  0  0  0
 32 57  1  0  0  0  0
M  END
$$$$
