CHEMBL477560
 OpenBabel04072215383D

 35 37  0  0  0  0  0  0  0  0999 V2000
   -1.6397    6.8260    0.9238 O   0  0  0  0  0  0  0  0  0  0  0  0
   -2.1765    5.6204    0.5685 C   0  0  0  0  0  0  0  0  0  0  0  0
   -1.4060    4.4635    0.6034 C   0  0  0  0  0  0  0  0  0  0  0  0
   -1.9741    3.2414    0.2097 C   0  0  0  0  0  0  0  0  0  0  0  0
   -3.3131    3.1719   -0.2200 C   0  0  0  0  0  0  0  0  0  0  0  0
   -3.8811    1.8710   -0.7548 C   0  0  0  0  0  0  0  0  0  0  0  0
   -5.2996    1.5480   -0.3478 C   0  0  0  0  0  0  0  0  0  0  0  0
   -6.3802    1.5785   -1.1529 C   0  0  0  0  0  0  0  0  0  0  0  0
   -7.6387    1.0546   -0.5809 C   0  0  0  0  0  0  0  0  0  0  0  0
   -8.9071    1.3979   -1.0629 C   0  0  0  0  0  0  0  0  0  0  0  0
  -10.0571    0.8454   -0.4738 C   0  0  0  0  0  0  0  0  0  0  0  0
   -9.9292   -0.0889    0.5526 C   0  0  0  0  0  0  0  0  0  0  0  0
  -11.0146   -0.6553    1.1646 O   0  0  0  0  0  0  0  0  0  0  0  0
   -8.6715   -0.4621    1.0132 C   0  0  0  0  0  0  0  0  0  0  0  0
   -8.5667   -1.3911    2.0123 O   0  0  0  0  0  0  0  0  0  0  0  0
   -7.5391    0.1446    0.4860 C   0  0  0  0  0  0  0  0  0  0  0  0
   -6.3152   -0.1386    1.0512 O   0  0  0  0  0  0  0  0  0  0  0  0
   -5.4980    1.0413    1.0589 C   0  0  0  0  0  0  0  0  0  0  0  0
   -4.0730    4.3506   -0.2447 C   0  0  0  0  0  0  0  0  0  0  0  0
   -3.5065    5.5616    0.1537 C   0  0  0  0  0  0  0  0  0  0  0  0
   -4.2484    6.7086    0.1187 O   0  0  0  0  0  0  0  0  0  0  0  0
   -0.6863    6.7226    1.0628 H   0  0  0  0  0  0  0  0  0  0  0  0
   -0.3674    4.4872    0.9266 H   0  0  0  0  0  0  0  0  0  0  0  0
   -1.3499    2.3512    0.2257 H   0  0  0  0  0  0  0  0  0  0  0  0
   -3.2471    1.0359   -0.4206 H   0  0  0  0  0  0  0  0  0  0  0  0
   -3.7895    1.8901   -1.8470 H   0  0  0  0  0  0  0  0  0  0  0  0
   -6.3526    1.8968   -2.1884 H   0  0  0  0  0  0  0  0  0  0  0  0
   -9.0153    2.1070   -1.8777 H   0  0  0  0  0  0  0  0  0  0  0  0
  -11.0396    1.1526   -0.8256 H   0  0  0  0  0  0  0  0  0  0  0  0
  -11.8110   -0.1723    0.8870 H   0  0  0  0  0  0  0  0  0  0  0  0
   -9.4836   -1.6765    2.1857 H   0  0  0  0  0  0  0  0  0  0  0  0
   -4.5511    0.7769    1.5363 H   0  0  0  0  0  0  0  0  0  0  0  0
   -5.9711    1.8142    1.6819 H   0  0  0  0  0  0  0  0  0  0  0  0
   -5.1024    4.3184   -0.5900 H   0  0  0  0  0  0  0  0  0  0  0  0
   -5.1449    6.4884   -0.1797 H   0  0  0  0  0  0  0  0  0  0  0  0
  1  2  1  0  0  0  0
  1 22  1  0  0  0  0
  2  3  1  0  0  0  0
  2 20  2  0  0  0  0
  3  4  2  0  0  0  0
  3 23  1  0  0  0  0
  4  5  1  0  0  0  0
  4 24  1  0  0  0  0
  5  6  1  0  0  0  0
  5 19  2  0  0  0  0
  6  7  1  0  0  0  0
  6 25  1  0  0  0  0
  6 26  1  0  0  0  0
  7  8  2  0  0  0  0
  7 18  1  0  0  0  0
  8  9  1  0  0  0  0
  8 27  1  0  0  0  0
  9 10  1  0  0  0  0
  9 16  2  0  0  0  0
 10 11  2  0  0  0  0
 10 28  1  0  0  0  0
 11 12  1  0  0  0  0
 11 29  1  0  0  0  0
 12 13  1  0  0  0  0
 12 14  2  0  0  0  0
 13 30  1  0  0  0  0
 14 15  1  0  0  0  0
 14 16  1  0  0  0  0
 15 31  1  0  0  0  0
 16 17  1  0  0  0  0
 17 18  1  0  0  0  0
 18 32  1  0  0  0  0
 18 33  1  0  0  0  0
 19 20  1  0  0  0  0
 19 34  1  0  0  0  0
 20 21  1  0  0  0  0
 21 35  1  0  0  0  0
M  END
$$$$
