CHEMBL2018883
 OpenBabel04072215363D

 54 57  0  0  0  0  0  0  0  0999 V2000
   10.9369   -2.0693    2.9381 C   0  0  0  0  0  0  0  0  0  0  0  0
   10.3133   -3.0500    3.7698 O   0  0  0  0  0  0  0  0  0  0  0  0
    9.0450   -3.4167    3.3939 C   0  0  0  0  0  0  0  0  0  0  0  0
    8.2037   -2.5410    2.6931 C   0  0  0  0  0  0  0  0  0  0  0  0
    6.9634   -2.9285    2.2147 C   0  0  0  0  0  0  0  0  0  0  0  0
    6.2863   -2.0363    1.4890 N   0  0  0  0  0  0  0  0  0  0  0  0
    5.0959   -2.4161    1.0226 C   0  0  0  0  0  0  0  0  0  0  0  0
    4.5135   -3.5887    1.2523 N   0  0  0  0  0  0  0  0  0  0  0  0
    5.2310   -4.4872    1.9625 C   0  0  0  0  0  0  0  0  0  0  0  0
    4.6589   -5.7440    2.2027 O   0  0  0  0  0  0  0  0  0  0  0  0
    3.6113   -6.1045    1.3790 C   0  0  0  0  0  0  0  0  0  0  0  0
    3.7229   -6.0348   -0.0005 C   0  0  0  0  0  0  0  0  0  0  0  0
    2.6185   -6.3003   -0.8017 C   0  0  0  0  0  0  0  0  0  0  0  0
    1.3712   -6.6545   -0.2615 C   0  0  0  0  0  0  0  0  0  0  0  0
    0.2394   -6.8125   -1.1133 N   0  0  0  0  0  0  0  0  0  0  0  0
    0.1566   -6.3192   -2.4085 C   0  0  0  0  0  0  0  0  0  0  0  0
    1.0407   -5.6922   -2.9814 O   0  0  0  0  0  0  0  0  0  0  0  0
   -1.0816   -6.5464   -3.0030 N   0  0  0  0  0  0  0  0  0  0  0  0
   -1.3004   -6.0789   -4.3250 C   0  0  0  0  0  0  0  0  0  0  0  0
   -0.3558   -6.2983   -5.3369 C   0  0  0  0  0  0  0  0  0  0  0  0
   -0.5081   -5.7050   -6.5937 C   0  0  0  0  0  0  0  0  0  0  0  0
   -1.6106   -4.8933   -6.8349 C   0  0  0  0  0  0  0  0  0  0  0  0
   -1.7802   -4.0204   -8.5038 Br  0  0  0  0  0  0  0  0  0  0  0  0
   -2.5778   -4.6982   -5.8491 C   0  0  0  0  0  0  0  0  0  0  0  0
   -2.4352   -5.3122   -4.5994 C   0  0  0  0  0  0  0  0  0  0  0  0
    1.2798   -6.8274    1.1369 C   0  0  0  0  0  0  0  0  0  0  0  0
    0.0321   -7.2854    1.8450 C   0  0  0  0  0  0  0  0  0  0  0  0
    2.4181   -6.5610    1.9426 C   0  0  0  0  0  0  0  0  0  0  0  0
    6.5021   -4.2188    2.4861 C   0  0  0  0  0  0  0  0  0  0  0  0
    7.3214   -5.1018    3.2302 C   0  0  0  0  0  0  0  0  0  0  0  0
    8.5775   -4.6955    3.7073 C   0  0  0  0  0  0  0  0  0  0  0  0
    9.2554   -5.6701    4.3903 O   0  0  0  0  0  0  0  0  0  0  0  0
   10.0636   -5.2304    5.4782 C   0  0  0  0  0  0  0  0  0  0  0  0
   12.0142   -2.0992    3.1220 H   0  0  0  0  0  0  0  0  0  0  0  0
   10.5818   -1.0647    3.1931 H   0  0  0  0  0  0  0  0  0  0  0  0
   10.7773   -2.2789    1.8735 H   0  0  0  0  0  0  0  0  0  0  0  0
    8.5114   -1.5224    2.4779 H   0  0  0  0  0  0  0  0  0  0  0  0
    4.5618   -1.7124    0.3928 H   0  0  0  0  0  0  0  0  0  0  0  0
    4.6467   -5.7155   -0.4741 H   0  0  0  0  0  0  0  0  0  0  0  0
    2.7772   -6.1971   -1.8688 H   0  0  0  0  0  0  0  0  0  0  0  0
   -0.5947   -7.2169   -0.7183 H   0  0  0  0  0  0  0  0  0  0  0  0
   -1.8674   -6.4811   -2.3741 H   0  0  0  0  0  0  0  0  0  0  0  0
    0.5312   -6.9050   -5.1525 H   0  0  0  0  0  0  0  0  0  0  0  0
    0.2470   -5.8664   -7.3552 H   0  0  0  0  0  0  0  0  0  0  0  0
   -3.4248   -4.0430   -6.0314 H   0  0  0  0  0  0  0  0  0  0  0  0
   -3.1730   -5.1131   -3.8293 H   0  0  0  0  0  0  0  0  0  0  0  0
   -0.8801   -7.0041    1.3131 H   0  0  0  0  0  0  0  0  0  0  0  0
   -0.0389   -6.8209    2.8356 H   0  0  0  0  0  0  0  0  0  0  0  0
    0.0509   -8.3723    1.9743 H   0  0  0  0  0  0  0  0  0  0  0  0
    2.3582   -6.6712    3.0235 H   0  0  0  0  0  0  0  0  0  0  0  0
    6.9869   -6.1186    3.4301 H   0  0  0  0  0  0  0  0  0  0  0  0
   10.0726   -6.0328    6.2233 H   0  0  0  0  0  0  0  0  0  0  0  0
    9.6693   -4.3350    5.9712 H   0  0  0  0  0  0  0  0  0  0  0  0
   11.0950   -5.0776    5.1466 H   0  0  0  0  0  0  0  0  0  0  0  0
  1  2  1  0  0  0  0
  1 34  1  0  0  0  0
  1 35  1  0  0  0  0
  1 36  1  0  0  0  0
  2  3  1  0  0  0  0
  3  4  1  0  0  0  0
  3 31  2  0  0  0  0
  4  5  2  0  0  0  0
  4 37  1  0  0  0  0
  5  6  1  0  0  0  0
  5 29  1  0  0  0  0
  6  7  2  0  0  0  0
  7  8  1  0  0  0  0
  7 38  1  0  0  0  0
  8  9  2  0  0  0  0
  9 10  1  0  0  0  0
  9 29  1  0  0  0  0
 10 11  1  0  0  0  0
 11 12  1  0  0  0  0
 11 28  2  0  0  0  0
 12 13  2  0  0  0  0
 12 39  1  0  0  0  0
 13 14  1  0  0  0  0
 13 40  1  0  0  0  0
 14 15  1  0  0  0  0
 14 26  2  0  0  0  0
 15 16  1  0  0  0  0
 15 41  1  0  0  0  0
 16 17  2  0  0  0  0
 16 18  1  0  0  0  0
 18 19  1  0  0  0  0
 18 42  1  0  0  0  0
 19 20  1  0  0  0  0
 19 25  2  0  0  0  0
 20 21  2  0  0  0  0
 20 43  1  0  0  0  0
 21 22  1  0  0  0  0
 21 44  1  0  0  0  0
 22 23  1  0  0  0  0
 22 24  2  0  0  0  0
 24 25  1  0  0  0  0
 24 45  1  0  0  0  0
 25 46  1  0  0  0  0
 26 27  1  0  0  0  0
 26 28  1  0  0  0  0
 27 47  1  0  0  0  0
 27 48  1  0  0  0  0
 27 49  1  0  0  0  0
 28 50  1  0  0  0  0
 29 30  2  0  0  0  0
 30 31  1  0  0  0  0
 30 51  1  0  0  0  0
 31 32  1  0  0  0  0
 32 33  1  0  0  0  0
 33 52  1  0  0  0  0
 33 53  1  0  0  0  0
 33 54  1  0  0  0  0
M  END
$$$$
