CHEMBL3671498
 OpenBabel04072215373D

 58 60  0  0  0  0  0  0  0  0999 V2000
    3.5190    0.1258    3.9328 C   0  0  0  0  0  0  0  0  0  0  0  0
    3.5659   -0.7732    2.9432 C   0  0  0  0  0  0  0  0  0  0  0  0
    3.6820   -0.3095    1.5353 C   0  0  0  0  0  0  0  0  0  0  0  0
    3.2420    0.7719    1.1616 O   0  0  0  0  0  0  0  0  0  0  0  0
    4.3443   -1.1314    0.6541 N   0  0  0  0  0  0  0  0  0  0  0  0
    5.2298   -2.1465    1.0660 C   0  0  0  0  0  0  0  0  0  0  0  0
    6.3894   -1.7698    1.7461 C   0  0  0  0  0  0  0  0  0  0  0  0
    7.1869   -2.7406    2.3902 C   0  0  0  0  0  0  0  0  0  0  0  0
    8.2853   -2.4538    3.2150 C   0  0  0  0  0  0  0  0  0  0  0  0
    8.6352   -1.1047    3.4905 N   0  0  0  0  0  0  0  0  0  0  0  0
    9.4323   -0.7134    4.5953 C   0  0  0  0  0  0  0  0  0  0  0  0
    9.2271   -1.2651    5.8652 C   0  0  0  0  0  0  0  0  0  0  0  0
   10.0767   -0.9526    6.9294 C   0  0  0  0  0  0  0  0  0  0  0  0
   11.1260   -0.0593    6.7323 C   0  0  0  0  0  0  0  0  0  0  0  0
   12.3316    0.2895    8.1461 Br  0  0  0  0  0  0  0  0  0  0  0  0
   11.3038    0.5597    5.4977 C   0  0  0  0  0  0  0  0  0  0  0  0
   10.4506    0.2367    4.4436 C   0  0  0  0  0  0  0  0  0  0  0  0
   10.6410    0.8165    3.2532 F   0  0  0  0  0  0  0  0  0  0  0  0
    8.9936   -3.4289    3.8152 N   0  0  0  0  0  0  0  0  0  0  0  0
    8.5921   -4.6837    3.6153 C   0  0  0  0  0  0  0  0  0  0  0  0
    7.5370   -5.0647    2.8903 N   0  0  0  0  0  0  0  0  0  0  0  0
    6.8385   -4.0962    2.2920 C   0  0  0  0  0  0  0  0  0  0  0  0
    5.7051   -4.4479    1.5704 C   0  0  0  0  0  0  0  0  0  0  0  0
    4.8991   -3.4987    0.9333 C   0  0  0  0  0  0  0  0  0  0  0  0
    3.8080   -4.0167    0.2850 O   0  0  0  0  0  0  0  0  0  0  0  0
    3.4211   -3.3267   -0.9095 C   0  0  0  0  0  0  0  0  0  0  0  0
    2.8474   -4.3097   -1.9353 C   0  0  0  0  0  0  0  0  0  0  0  0
    2.5368   -3.6545   -3.1946 N   0  0  0  0  0  0  0  0  0  0  0  0
    3.5378   -3.2657   -4.0637 C   0  0  0  0  0  0  0  0  0  0  0  0
    4.7080   -3.6216   -3.9448 O   0  0  0  0  0  0  0  0  0  0  0  0
    3.0695   -2.3596   -5.2086 C   0  0  0  0  0  0  0  0  0  0  0  0
    2.0286   -1.3932   -4.7632 N   0  0  0  0  0  0  0  0  0  0  0  0
    2.5757   -0.4329   -3.7941 C   0  0  0  0  0  0  0  0  0  0  0  0
    1.5406   -0.6493   -5.9336 C   0  0  0  0  0  0  0  0  0  0  0  0
    3.4911   -0.1886    4.9700 H   0  0  0  0  0  0  0  0  0  0  0  0
    3.5278    1.1938    3.7278 H   0  0  0  0  0  0  0  0  0  0  0  0
    3.5743   -1.8373    3.1520 H   0  0  0  0  0  0  0  0  0  0  0  0
    4.6403   -0.5845   -0.1470 H   0  0  0  0  0  0  0  0  0  0  0  0
    6.6338   -0.7145    1.8445 H   0  0  0  0  0  0  0  0  0  0  0  0
    8.9085   -0.6232    2.6371 H   0  0  0  0  0  0  0  0  0  0  0  0
    8.4169   -1.9724    6.0277 H   0  0  0  0  0  0  0  0  0  0  0  0
    9.9208   -1.4297    7.8934 H   0  0  0  0  0  0  0  0  0  0  0  0
   12.1074    1.2683    5.3325 H   0  0  0  0  0  0  0  0  0  0  0  0
    9.1715   -5.4645    4.0952 H   0  0  0  0  0  0  0  0  0  0  0  0
    5.4258   -5.4988    1.5194 H   0  0  0  0  0  0  0  0  0  0  0  0
    4.2733   -2.8087   -1.3643 H   0  0  0  0  0  0  0  0  0  0  0  0
    2.6467   -2.5933   -0.6558 H   0  0  0  0  0  0  0  0  0  0  0  0
    1.9287   -4.7684   -1.5556 H   0  0  0  0  0  0  0  0  0  0  0  0
    3.5647   -5.1178   -2.1185 H   0  0  0  0  0  0  0  0  0  0  0  0
    1.6629   -3.1425   -3.2953 H   0  0  0  0  0  0  0  0  0  0  0  0
    2.6629   -3.0217   -5.9827 H   0  0  0  0  0  0  0  0  0  0  0  0
    3.9412   -1.8370   -5.6212 H   0  0  0  0  0  0  0  0  0  0  0  0
    2.9351   -0.9334   -2.8899 H   0  0  0  0  0  0  0  0  0  0  0  0
    1.7915    0.2586   -3.4660 H   0  0  0  0  0  0  0  0  0  0  0  0
    3.4025    0.1536   -4.2109 H   0  0  0  0  0  0  0  0  0  0  0  0
    1.1291   -1.3295   -6.6868 H   0  0  0  0  0  0  0  0  0  0  0  0
    2.3339   -0.0552   -6.4054 H   0  0  0  0  0  0  0  0  0  0  0  0
    0.7306    0.0304   -5.6454 H   0  0  0  0  0  0  0  0  0  0  0  0
  1  2  2  0  0  0  0
  1 35  1  0  0  0  0
  1 36  1  0  0  0  0
  2  3  1  0  0  0  0
  2 37  1  0  0  0  0
  3  4  2  0  0  0  0
  3  5  1  0  0  0  0
  5  6  1  0  0  0  0
  5 38  1  0  0  0  0
  6  7  1  0  0  0  0
  6 24  2  0  0  0  0
  7  8  2  0  0  0  0
  7 39  1  0  0  0  0
  8  9  1  0  0  0  0
  8 22  1  0  0  0  0
  9 10  1  0  0  0  0
  9 19  2  0  0  0  0
 10 11  1  0  0  0  0
 10 40  1  0  0  0  0
 11 12  1  0  0  0  0
 11 17  2  0  0  0  0
 12 13  2  0  0  0  0
 12 41  1  0  0  0  0
 13 14  1  0  0  0  0
 13 42  1  0  0  0  0
 14 15  1  0  0  0  0
 14 16  2  0  0  0  0
 16 17  1  0  0  0  0
 16 43  1  0  0  0  0
 17 18  1  0  0  0  0
 19 20  1  0  0  0  0
 20 21  2  0  0  0  0
 20 44  1  0  0  0  0
 21 22  1  0  0  0  0
 22 23  2  0  0  0  0
 23 24  1  0  0  0  0
 23 45  1  0  0  0  0
 24 25  1  0  0  0  0
 25 26  1  0  0  0  0
 26 27  1  0  0  0  0
 26 46  1  0  0  0  0
 26 47  1  0  0  0  0
 27 28  1  0  0  0  0
 27 48  1  0  0  0  0
 27 49  1  0  0  0  0
 28 29  1  0  0  0  0
 28 50  1  0  0  0  0
 29 30  2  0  0  0  0
 29 31  1  0  0  0  0
 31 32  1  0  0  0  0
 31 51  1  0  0  0  0
 31 52  1  0  0  0  0
 32 33  1  0  0  0  0
 32 34  1  0  0  0  0
 33 53  1  0  0  0  0
 33 54  1  0  0  0  0
 33 55  1  0  0  0  0
 34 56  1  0  0  0  0
 34 57  1  0  0  0  0
 34 58  1  0  0  0  0
M  END
$$$$
