CHEMBL498557
 OpenBabel04072215383D

 44 47  0  0  0  0  0  0  0  0999 V2000
    1.1056    0.1637    0.0478 C   0  0  0  0  0  0  0  0  0  0  0  0
    2.6056    0.0369    0.0539 C   0  0  0  0  0  0  0  0  0  0  0  0
    3.3688    1.2650    0.0252 C   0  0  0  0  0  0  0  0  0  0  0  0
    4.7025    1.2443    0.1195 C   0  0  0  0  0  0  0  0  0  0  0  0
    5.4152    0.0605    0.2264 N   0  0  0  0  0  0  0  0  0  0  0  0
    6.8439    0.0562    0.2067 C   0  0  0  0  0  0  0  0  0  0  0  0
    7.5197    0.8160   -0.7557 C   0  0  0  0  0  0  0  0  0  0  0  0
    8.8974    0.6712   -0.9249 C   0  0  0  0  0  0  0  0  0  0  0  0
    9.6280   -0.2063   -0.1134 C   0  0  0  0  0  0  0  0  0  0  0  0
   11.0956   -0.4504   -0.3588 C   0  0  0  0  0  0  0  0  0  0  0  0
   11.5752    0.1972   -1.4578 F   0  0  0  0  0  0  0  0  0  0  0  0
   11.8740   -0.0474    0.6814 F   0  0  0  0  0  0  0  0  0  0  0  0
   11.3789   -1.7685   -0.5539 F   0  0  0  0  0  0  0  0  0  0  0  0
    8.9643   -0.8908    0.9148 C   0  0  0  0  0  0  0  0  0  0  0  0
    7.5817   -0.7692    1.0654 C   0  0  0  0  0  0  0  0  0  0  0  0
    4.7601   -1.1864    0.2210 C   0  0  0  0  0  0  0  0  0  0  0  0
    5.3197   -2.2821    0.2667 O   0  0  0  0  0  0  0  0  0  0  0  0
    3.2587   -1.1416    0.1485 C   0  0  0  0  0  0  0  0  0  0  0  0
    2.5035   -2.3764    0.4177 C   0  0  0  0  0  0  0  0  0  0  0  0
    2.0373   -2.5054    1.7322 C   0  0  0  0  0  0  0  0  0  0  0  0
    1.3078   -3.6201    2.1042 C   0  0  0  0  0  0  0  0  0  0  0  0
    1.1840   -4.6643    1.2352 C   0  0  0  0  0  0  0  0  0  0  0  0
    0.7011   -5.7651    1.7728 N   0  0  0  0  0  0  0  0  0  0  0  0
    0.9266   -6.8829    1.1030 C   0  0  0  0  0  0  0  0  0  0  0  0
    1.1908   -7.9312    1.9820 N   0  0  0  0  0  0  0  0  0  0  0  0
    1.3199   -6.9551   -0.1715 N   0  0  0  0  0  0  0  0  0  0  0  0
    1.6481   -5.7861   -0.7622 C   0  0  0  0  0  0  0  0  0  0  0  0
    1.7022   -4.5859   -0.0653 C   0  0  0  0  0  0  0  0  0  0  0  0
    2.3105   -3.3962   -0.5164 C   0  0  0  0  0  0  0  0  0  0  0  0
    0.7729    1.2018   -0.0457 H   0  0  0  0  0  0  0  0  0  0  0  0
    0.6754   -0.2166    0.9807 H   0  0  0  0  0  0  0  0  0  0  0  0
    0.6704   -0.3943   -0.7894 H   0  0  0  0  0  0  0  0  0  0  0  0
    2.8388    2.2103   -0.0197 H   0  0  0  0  0  0  0  0  0  0  0  0
    5.2652    2.1709    0.1580 H   0  0  0  0  0  0  0  0  0  0  0  0
    6.9703    1.4487   -1.4483 H   0  0  0  0  0  0  0  0  0  0  0  0
    9.3859    1.2076   -1.7379 H   0  0  0  0  0  0  0  0  0  0  0  0
    9.5148   -1.5582    1.5764 H   0  0  0  0  0  0  0  0  0  0  0  0
    7.0838   -1.3416    1.8464 H   0  0  0  0  0  0  0  0  0  0  0  0
    2.2647   -1.7523    2.4778 H   0  0  0  0  0  0  0  0  0  0  0  0
    0.9644   -3.7116    3.1295 H   0  0  0  0  0  0  0  0  0  0  0  0
    1.9228   -7.4937    2.5490 H   0  0  0  0  0  0  0  0  0  0  0  0
    0.4088   -7.9276    2.6286 H   0  0  0  0  0  0  0  0  0  0  0  0
    1.9883   -5.8744   -1.7906 H   0  0  0  0  0  0  0  0  0  0  0  0
    2.7137   -3.3192   -1.5197 H   0  0  0  0  0  0  0  0  0  0  0  0
  1  2  1  0  0  0  0
  1 30  1  0  0  0  0
  1 31  1  0  0  0  0
  1 32  1  0  0  0  0
  2  3  1  0  0  0  0
  2 18  2  0  0  0  0
  3  4  2  0  0  0  0
  3 33  1  0  0  0  0
  4  5  1  0  0  0  0
  4 34  1  0  0  0  0
  5  6  1  0  0  0  0
  5 16  1  0  0  0  0
  6  7  1  0  0  0  0
  6 15  2  0  0  0  0
  7  8  2  0  0  0  0
  7 35  1  0  0  0  0
  8  9  1  0  0  0  0
  8 36  1  0  0  0  0
  9 10  1  0  0  0  0
  9 14  2  0  0  0  0
 10 11  1  0  0  0  0
 10 12  1  0  0  0  0
 10 13  1  0  0  0  0
 14 15  1  0  0  0  0
 14 37  1  0  0  0  0
 15 38  1  0  0  0  0
 16 17  2  0  0  0  0
 16 18  1  0  0  0  0
 18 19  1  0  0  0  0
 19 20  1  0  0  0  0
 19 29  2  0  0  0  0
 20 21  2  0  0  0  0
 20 39  1  0  0  0  0
 21 22  1  0  0  0  0
 21 40  1  0  0  0  0
 22 23  1  0  0  0  0
 22 28  2  0  0  0  0
 23 24  2  0  0  0  0
 24 25  1  0  0  0  0
 24 26  1  0  0  0  0
 25 41  1  0  0  0  0
 25 42  1  0  0  0  0
 26 27  2  0  0  0  0
 27 28  1  0  0  0  0
 27 43  1  0  0  0  0
 28 29  1  0  0  0  0
 29 44  1  0  0  0  0
M  END
$$$$
