CHEMBL3690592
 OpenBabel04072215373D

 48 51  0  0  0  0  0  0  0  0999 V2000
    2.7329   -1.4059   -0.0406 O   0  0  0  0  0  0  0  0  0  0  0  0
    2.6575   -0.4067    0.6613 C   0  0  0  0  0  0  0  0  0  0  0  0
    1.6403   -0.2595    1.5812 N   0  0  0  0  0  0  0  0  0  0  0  0
    0.5552   -1.2484    1.5891 C   0  0  0  0  0  0  0  0  0  0  0  0
   -0.5496   -1.0062    0.5509 C   0  0  0  0  0  0  0  0  0  0  0  0
   -0.3533    0.1448   -0.1347 F   0  0  0  0  0  0  0  0  0  0  0  0
   -0.6525   -2.0136   -0.3388 F   0  0  0  0  0  0  0  0  0  0  0  0
   -1.7497   -0.8878    1.1723 F   0  0  0  0  0  0  0  0  0  0  0  0
    3.5196    0.6680    0.6856 N   0  0  0  0  0  0  0  0  0  0  0  0
    4.6861    0.8376   -0.0916 C   0  0  0  0  0  0  0  0  0  0  0  0
    5.1385   -0.1114   -1.0072 C   0  0  0  0  0  0  0  0  0  0  0  0
    6.3427    0.0680   -1.6785 C   0  0  0  0  0  0  0  0  0  0  0  0
    7.0908    1.2219   -1.4649 C   0  0  0  0  0  0  0  0  0  0  0  0
    6.6090    2.2492   -0.6457 C   0  0  0  0  0  0  0  0  0  0  0  0
    7.3157    3.5338   -0.5538 C   0  0  0  0  0  0  0  0  0  0  0  0
    7.4743    4.3923    0.5240 C   0  0  0  0  0  0  0  0  0  0  0  0
    8.2117    5.4984    0.2008 N   0  0  0  0  0  0  0  0  0  0  0  0
    8.5068    5.3564   -1.0715 C   0  0  0  0  0  0  0  0  0  0  0  0
    9.2561    6.1946   -1.9488 C   0  0  0  0  0  0  0  0  0  0  0  0
    9.4230    5.8759   -3.2568 C   0  0  0  0  0  0  0  0  0  0  0  0
   10.1955    6.7907   -4.1407 C   0  0  0  0  0  0  0  0  0  0  0  0
   10.6964    7.9217   -3.6149 N   0  0  0  0  0  0  0  0  0  0  0  0
   11.3505    8.7451   -4.4541 C   0  0  0  0  0  0  0  0  0  0  0  0
   11.5260    8.4857   -5.7932 C   0  0  0  0  0  0  0  0  0  0  0  0
   12.2340    9.4160   -6.7056 C   0  0  0  0  0  0  0  0  0  0  0  0
   12.6829   10.5432   -6.0883 F   0  0  0  0  0  0  0  0  0  0  0  0
   13.3258    8.8463   -7.2840 F   0  0  0  0  0  0  0  0  0  0  0  0
   11.4457    9.8398   -7.7295 F   0  0  0  0  0  0  0  0  0  0  0  0
   10.9883    7.2995   -6.2366 C   0  0  0  0  0  0  0  0  0  0  0  0
   10.3251    6.4393   -5.4373 N   0  0  0  0  0  0  0  0  0  0  0  0
    8.7980    4.6480   -3.7646 C   0  0  0  0  0  0  0  0  0  0  0  0
    8.0786    3.8639   -2.9521 C   0  0  0  0  0  0  0  0  0  0  0  0
    7.9540    4.1937   -1.6012 N   0  0  0  0  0  0  0  0  0  0  0  0
    5.4225    2.0246    0.0743 C   0  0  0  0  0  0  0  0  0  0  0  0
    1.3721    0.6923    1.7888 H   0  0  0  0  0  0  0  0  0  0  0  0
    0.1272   -1.2237    2.5962 H   0  0  0  0  0  0  0  0  0  0  0  0
    0.9802   -2.2480    1.4425 H   0  0  0  0  0  0  0  0  0  0  0  0
    3.3375    1.3725    1.3832 H   0  0  0  0  0  0  0  0  0  0  0  0
    4.5879   -1.0235   -1.2089 H   0  0  0  0  0  0  0  0  0  0  0  0
    6.6976   -0.6950   -2.3688 H   0  0  0  0  0  0  0  0  0  0  0  0
    8.0525    1.3033   -1.9652 H   0  0  0  0  0  0  0  0  0  0  0  0
    7.1017    4.2598    1.5318 H   0  0  0  0  0  0  0  0  0  0  0  0
    9.6745    7.0982   -1.5164 H   0  0  0  0  0  0  0  0  0  0  0  0
   11.7352    9.6517   -3.9930 H   0  0  0  0  0  0  0  0  0  0  0  0
   11.0697    6.9852   -7.2746 H   0  0  0  0  0  0  0  0  0  0  0  0
    8.9231    4.3956   -4.8168 H   0  0  0  0  0  0  0  0  0  0  0  0
    7.5841    2.9790   -3.3223 H   0  0  0  0  0  0  0  0  0  0  0  0
    5.0576    2.7923    0.7528 H   0  0  0  0  0  0  0  0  0  0  0  0
  1  2  2  0  0  0  0
  2  3  1  0  0  0  0
  2  9  1  0  0  0  0
  3  4  1  0  0  0  0
  3 35  1  0  0  0  0
  4  5  1  0  0  0  0
  4 36  1  0  0  0  0
  4 37  1  0  0  0  0
  5  6  1  0  0  0  0
  5  7  1  0  0  0  0
  5  8  1  0  0  0  0
  9 10  1  0  0  0  0
  9 38  1  0  0  0  0
 10 11  1  0  0  0  0
 10 34  2  0  0  0  0
 11 12  2  0  0  0  0
 11 39  1  0  0  0  0
 12 13  1  0  0  0  0
 12 40  1  0  0  0  0
 13 14  2  0  0  0  0
 13 41  1  0  0  0  0
 14 15  1  0  0  0  0
 14 34  1  0  0  0  0
 15 16  2  0  0  0  0
 15 33  1  0  0  0  0
 16 17  1  0  0  0  0
 16 42  1  0  0  0  0
 17 18  2  0  0  0  0
 18 19  1  0  0  0  0
 18 33  1  0  0  0  0
 19 20  2  0  0  0  0
 19 43  1  0  0  0  0
 20 21  1  0  0  0  0
 20 31  1  0  0  0  0
 21 22  1  0  0  0  0
 21 30  2  0  0  0  0
 22 23  2  0  0  0  0
 23 24  1  0  0  0  0
 23 44  1  0  0  0  0
 24 25  1  0  0  0  0
 24 29  2  0  0  0  0
 25 26  1  0  0  0  0
 25 27  1  0  0  0  0
 25 28  1  0  0  0  0
 29 30  1  0  0  0  0
 29 45  1  0  0  0  0
 31 32  2  0  0  0  0
 31 46  1  0  0  0  0
 32 33  1  0  0  0  0
 32 47  1  0  0  0  0
 34 48  1  0  0  0  0
M  END
$$$$
