CHEMBL2086738
 OpenBabel04072215363D

 44 48  0  0  0  0  0  0  0  0999 V2000
   -3.1948    0.7687   -0.2000 O   0  0  0  0  0  0  0  0  0  0  0  0
   -2.0163    0.4785   -0.2296 C   0  0  0  0  0  0  0  0  0  0  0  0
   -0.9786    1.3982   -0.2043 N   0  0  0  0  0  0  0  0  0  0  0  0
    0.2695    0.7786   -0.1441 C   0  0  0  0  0  0  0  0  0  0  0  0
    1.5260    1.3780   -0.0829 C   0  0  0  0  0  0  0  0  0  0  0  0
    1.7652    2.8386   -0.0672 C   0  0  0  0  0  0  0  0  0  0  0  0
    2.7428    3.3515   -0.5833 O   0  0  0  0  0  0  0  0  0  0  0  0
    0.8398    3.5383    0.6231 O   0  0  0  0  0  0  0  0  0  0  0  0
    2.6487    0.5417   -0.0615 C   0  0  0  0  0  0  0  0  0  0  0  0
    2.5006   -0.8502   -0.1048 C   0  0  0  0  0  0  0  0  0  0  0  0
    1.2292   -1.4342   -0.1604 C   0  0  0  0  0  0  0  0  0  0  0  0
    0.1063   -0.6183   -0.1626 C   0  0  0  0  0  0  0  0  0  0  0  0
   -1.3556   -0.8889   -0.2024 C   0  0  0  0  0  0  0  0  0  0  0  0
   -2.0351   -2.0636   -0.1664 C   0  0  0  0  0  0  0  0  0  0  0  0
   -1.3279   -3.3565   -0.0108 C   0  0  0  0  0  0  0  0  0  0  0  0
   -1.0291   -3.8340    1.2756 C   0  0  0  0  0  0  0  0  0  0  0  0
   -0.4195   -5.0773    1.4438 C   0  0  0  0  0  0  0  0  0  0  0  0
   -0.0977   -5.8497    0.3298 C   0  0  0  0  0  0  0  0  0  0  0  0
   -0.3851   -5.3811   -0.9528 C   0  0  0  0  0  0  0  0  0  0  0  0
   -1.0048   -4.1405   -1.1254 C   0  0  0  0  0  0  0  0  0  0  0  0
   -3.4709   -2.0734   -0.1613 C   0  0  0  0  0  0  0  0  0  0  0  0
   -4.3665   -2.1515   -1.1250 N   0  0  0  0  0  0  0  0  0  0  0  0
   -5.5946   -2.1196   -0.4932 C   0  0  0  0  0  0  0  0  0  0  0  0
   -6.8951   -2.1227   -1.0229 C   0  0  0  0  0  0  0  0  0  0  0  0
   -7.9818   -2.0295   -0.1408 C   0  0  0  0  0  0  0  0  0  0  0  0
   -7.7835   -1.9626    1.2418 C   0  0  0  0  0  0  0  0  0  0  0  0
   -6.4983   -2.0073    1.7884 C   0  0  0  0  0  0  0  0  0  0  0  0
   -5.4381   -2.0772    0.8858 C   0  0  0  0  0  0  0  0  0  0  0  0
   -4.0837   -2.1099    1.0680 N   0  0  0  0  0  0  0  0  0  0  0  0
   -1.1628    2.3897   -0.2918 H   0  0  0  0  0  0  0  0  0  0  0  0
    0.2658    2.9926    1.1923 H   0  0  0  0  0  0  0  0  0  0  0  0
    3.6496    0.9715   -0.0191 H   0  0  0  0  0  0  0  0  0  0  0  0
    3.3853   -1.4843   -0.1050 H   0  0  0  0  0  0  0  0  0  0  0  0
    1.1624   -2.5144   -0.2135 H   0  0  0  0  0  0  0  0  0  0  0  0
   -1.2781   -3.2474    2.1558 H   0  0  0  0  0  0  0  0  0  0  0  0
   -0.2064   -5.4483    2.4433 H   0  0  0  0  0  0  0  0  0  0  0  0
    0.3673   -6.8239    0.4614 H   0  0  0  0  0  0  0  0  0  0  0  0
   -0.1402   -5.9910   -1.8193 H   0  0  0  0  0  0  0  0  0  0  0  0
   -1.2449   -3.7967   -2.1299 H   0  0  0  0  0  0  0  0  0  0  0  0
   -7.0517   -2.1721   -2.0945 H   0  0  0  0  0  0  0  0  0  0  0  0
   -8.9956   -1.9951   -0.5360 H   0  0  0  0  0  0  0  0  0  0  0  0
   -8.6402   -1.8687    1.9060 H   0  0  0  0  0  0  0  0  0  0  0  0
   -6.3371   -1.9601    2.8592 H   0  0  0  0  0  0  0  0  0  0  0  0
   -3.6137   -2.1241    1.9586 H   0  0  0  0  0  0  0  0  0  0  0  0
  1  2  2  0  0  0  0
  2  3  1  0  0  0  0
  2 13  1  0  0  0  0
  3  4  1  0  0  0  0
  3 30  1  0  0  0  0
  4  5  1  0  0  0  0
  4 12  2  0  0  0  0
  5  6  1  0  0  0  0
  5  9  2  0  0  0  0
  6  7  2  0  0  0  0
  6  8  1  0  0  0  0
  8 31  1  0  0  0  0
  9 10  1  0  0  0  0
  9 32  1  0  0  0  0
 10 11  2  0  0  0  0
 10 33  1  0  0  0  0
 11 12  1  0  0  0  0
 11 34  1  0  0  0  0
 12 13  1  0  0  0  0
 13 14  2  3  0  0  0
 14 15  1  0  0  0  0
 14 21  1  0  0  0  0
 15 16  1  0  0  0  0
 15 20  2  0  0  0  0
 16 17  2  0  0  0  0
 16 35  1  0  0  0  0
 17 18  1  0  0  0  0
 17 36  1  0  0  0  0
 18 19  2  0  0  0  0
 18 37  1  0  0  0  0
 19 20  1  0  0  0  0
 19 38  1  0  0  0  0
 20 39  1  0  0  0  0
 21 22  2  0  0  0  0
 21 29  1  0  0  0  0
 22 23  1  0  0  0  0
 23 24  1  0  0  0  0
 23 28  2  0  0  0  0
 24 25  2  0  0  0  0
 24 40  1  0  0  0  0
 25 26  1  0  0  0  0
 25 41  1  0  0  0  0
 26 27  2  0  0  0  0
 26 42  1  0  0  0  0
 27 28  1  0  0  0  0
 27 43  1  0  0  0  0
 28 29  1  0  0  0  0
 29 44  1  0  0  0  0
M  END
$$$$
