CHEMBL319347
 OpenBabel04072215363D

 28 28  0  0  1  0  0  0  0  0999 V2000
    1.2371    0.5689    0.4339 C   0  0  0  0  0  0  0  0  0  0  0  0
    2.3931   -0.0967   -0.0616 O   0  0  0  0  0  0  0  0  0  0  0  0
    3.0293    0.4306   -1.1701 C   0  0  0  0  0  0  0  0  0  0  0  0
    2.6356    1.5141   -1.8531 C   0  0  0  0  0  0  0  0  0  0  0  0
    3.3649    2.0071   -3.0300 C   0  0  0  0  0  0  0  0  0  0  0  0
    2.8900    2.8753   -3.7588 O   0  0  0  0  0  0  0  0  0  0  0  0
    4.6961    1.4046   -3.3617 C   0  0  0  0  0  0  0  0  0  0  0  0
    5.4278    2.0804   -4.3356 N   0  0  0  0  0  0  0  0  0  0  0  0
    5.9376    1.4720   -5.5835 C   0  0  1  0  0  0  0  0  0  0  0  0
    4.7802    0.9548   -6.4530 C   0  0  0  0  0  0  0  0  0  0  0  0
    3.8755    2.0320   -6.7556 O   0  0  0  0  0  0  0  0  0  0  0  0
    6.7628    2.5176   -6.3624 C   0  0  0  0  0  0  0  0  0  0  0  0
    7.9675    2.6799   -6.1996 O   0  0  0  0  0  0  0  0  0  0  0  0
    6.0482    3.3308   -7.1808 O   0  0  0  0  0  0  0  0  0  0  0  0
    5.0684    0.2995   -2.7101 C   0  0  0  0  0  0  0  0  0  0  0  0
    4.2531   -0.3071   -1.6322 C   0  0  0  0  0  0  0  0  0  0  0  0
    4.6042   -1.3729   -1.1423 O   0  0  0  0  0  0  0  0  0  0  0  0
    0.8683    0.0109    1.2995 H   0  0  0  0  0  0  0  0  0  0  0  0
    0.4427    0.5850   -0.3190 H   0  0  0  0  0  0  0  0  0  0  0  0
    1.4814    1.5841    0.7656 H   0  0  0  0  0  0  0  0  0  0  0  0
    1.7532    2.0883   -1.6034 H   0  0  0  0  0  0  0  0  0  0  0  0
    5.0226    3.0077   -4.5101 H   0  0  0  0  0  0  0  0  0  0  0  0
    6.6091    0.6370   -5.3539 H   0  0  0  0  0  0  0  0  0  0  0  0
    4.2125    0.1625   -5.9547 H   0  0  0  0  0  0  0  0  0  0  0  0
    5.1563    0.5617   -7.4030 H   0  0  0  0  0  0  0  0  0  0  0  0
    3.3610    2.2138   -5.9384 H   0  0  0  0  0  0  0  0  0  0  0  0
    5.0882    3.1019   -7.2312 H   0  0  0  0  0  0  0  0  0  0  0  0
    6.0117   -0.1939   -2.9053 H   0  0  0  0  0  0  0  0  0  0  0  0
  1  2  1  0  0  0  0
  1 18  1  0  0  0  0
  1 19  1  0  0  0  0
  1 20  1  0  0  0  0
  2  3  1  0  0  0  0
  3  4  2  0  0  0  0
  3 16  1  0  0  0  0
  4  5  1  0  0  0  0
  4 21  1  0  0  0  0
  5  6  2  0  0  0  0
  5  7  1  0  0  0  0
  7  8  1  0  0  0  0
  7 15  2  0  0  0  0
  8  9  1  0  0  0  0
  8 22  1  0  0  0  0
  9 10  1  0  0  0  0
  9 12  1  0  0  0  0
  9 23  1  1  0  0  0
 10 11  1  0  0  0  0
 10 24  1  0  0  0  0
 10 25  1  0  0  0  0
 11 26  1  0  0  0  0
 12 13  2  0  0  0  0
 12 14  1  0  0  0  0
 14 27  1  0  0  0  0
 15 16  1  0  0  0  0
 15 28  1  0  0  0  0
 16 17  2  0  0  0  0
M  END
$$$$
