CHEMBL3913860
 OpenBabel04072215373D

 62 66  0  0  0  0  0  0  0  0999 V2000
    0.8571   -0.1326    0.0226 C   0  0  0  0  0  0  0  0  0  0  0  0
    2.2817   -0.0329    0.1150 O   0  0  0  0  0  0  0  0  0  0  0  0
    2.8475    0.7839   -0.8308 C   0  0  0  0  0  0  0  0  0  0  0  0
    3.9379    0.2579   -1.5237 C   0  0  0  0  0  0  0  0  0  0  0  0
    4.5716    1.0020   -2.5608 C   0  0  0  0  0  0  0  0  0  0  0  0
    5.6467    0.5617   -3.3650 C   0  0  0  0  0  0  0  0  0  0  0  0
    6.2392   -0.7046   -3.1198 N   0  0  0  0  0  0  0  0  0  0  0  0
    7.4026   -1.2395   -3.7202 C   0  0  0  0  0  0  0  0  0  0  0  0
    8.4441   -0.4376   -4.1955 C   0  0  0  0  0  0  0  0  0  0  0  0
    9.5827   -0.9907   -4.7910 C   0  0  0  0  0  0  0  0  0  0  0  0
    9.7201   -2.3742   -4.8794 C   0  0  0  0  0  0  0  0  0  0  0  0
   11.1328   -2.9968   -5.6485 Cl  0  0  0  0  0  0  0  0  0  0  0  0
    8.7220   -3.1965   -4.3460 C   0  0  0  0  0  0  0  0  0  0  0  0
    8.8371   -4.9211   -4.3750 Cl  0  0  0  0  0  0  0  0  0  0  0  0
    7.5804   -2.6297   -3.7612 C   0  0  0  0  0  0  0  0  0  0  0  0
    6.1464    1.3405   -4.3457 N   0  0  0  0  0  0  0  0  0  0  0  0
    5.6052    2.5446   -4.5241 C   0  0  0  0  0  0  0  0  0  0  0  0
    4.6035    3.0634   -3.8100 N   0  0  0  0  0  0  0  0  0  0  0  0
    4.1075    2.2898   -2.8467 C   0  0  0  0  0  0  0  0  0  0  0  0
    3.0786    2.8207   -2.0924 C   0  0  0  0  0  0  0  0  0  0  0  0
    2.4688    2.1062   -1.0637 C   0  0  0  0  0  0  0  0  0  0  0  0
    1.5137    2.6578   -0.2610 O   0  0  0  0  0  0  0  0  0  0  0  0
    1.6208    4.0663   -0.0455 C   0  0  0  0  0  0  0  0  0  0  0  0
    0.9152    4.3668    1.2350 C   0  0  0  0  0  0  0  0  0  0  0  0
   -0.1903    5.0759    1.3194 N   0  0  0  0  0  0  0  0  0  0  0  0
   -0.6082    5.1458    2.6382 C   0  0  0  0  0  0  0  0  0  0  0  0
   -1.8850    5.8708    2.9401 C   0  0  0  0  0  0  0  0  0  0  0  0
   -1.6724    6.9603    3.9038 N   0  0  0  0  0  0  0  0  0  0  0  0
   -0.8058    8.0282    3.3626 C   0  0  0  0  0  0  0  0  0  0  0  0
   -0.6498    9.1961    4.3657 C   0  0  0  0  0  0  0  0  0  0  0  0
   -1.9199    9.7938    4.8223 N   0  0  0  0  0  0  0  0  0  0  0  0
   -2.5370   10.6046    3.7754 C   0  0  0  0  0  0  0  0  0  0  0  0
   -2.8212    8.7176    5.2804 C   0  0  0  0  0  0  0  0  0  0  0  0
   -2.9745    7.5361    4.2940 C   0  0  0  0  0  0  0  0  0  0  0  0
    0.2221    4.5115    3.5439 C   0  0  0  0  0  0  0  0  0  0  0  0
    1.5460    3.7968    2.7320 S   0  0  0  0  0  0  0  0  0  0  0  0
    0.5227   -0.8439    0.7843 H   0  0  0  0  0  0  0  0  0  0  0  0
    0.5496   -0.5151   -0.9571 H   0  0  0  0  0  0  0  0  0  0  0  0
    0.3438    0.8063    0.2395 H   0  0  0  0  0  0  0  0  0  0  0  0
    4.2937   -0.7352   -1.2569 H   0  0  0  0  0  0  0  0  0  0  0  0
    5.5126   -1.4044   -3.0125 H   0  0  0  0  0  0  0  0  0  0  0  0
    8.3940    0.6463   -4.1217 H   0  0  0  0  0  0  0  0  0  0  0  0
   10.3535   -0.3302   -5.1817 H   0  0  0  0  0  0  0  0  0  0  0  0
    6.8190   -3.2870   -3.3485 H   0  0  0  0  0  0  0  0  0  0  0  0
    6.0166    3.1591   -5.3173 H   0  0  0  0  0  0  0  0  0  0  0  0
    2.7617    3.8340   -2.3355 H   0  0  0  0  0  0  0  0  0  0  0  0
    1.1209    4.5892   -0.8688 H   0  0  0  0  0  0  0  0  0  0  0  0
    2.6637    4.4015    0.0263 H   0  0  0  0  0  0  0  0  0  0  0  0
   -2.5778    5.1330    3.3643 H   0  0  0  0  0  0  0  0  0  0  0  0
   -2.3363    6.2414    2.0110 H   0  0  0  0  0  0  0  0  0  0  0  0
   -1.2009    8.4074    2.4105 H   0  0  0  0  0  0  0  0  0  0  0  0
    0.1992    7.6400    3.1598 H   0  0  0  0  0  0  0  0  0  0  0  0
   -0.0010    9.9700    3.9363 H   0  0  0  0  0  0  0  0  0  0  0  0
   -0.1139    8.8238    5.2507 H   0  0  0  0  0  0  0  0  0  0  0  0
   -1.8619   11.4133    3.4738 H   0  0  0  0  0  0  0  0  0  0  0  0
   -3.4462   11.0836    4.1527 H   0  0  0  0  0  0  0  0  0  0  0  0
   -2.8017   10.0354    2.8821 H   0  0  0  0  0  0  0  0  0  0  0  0
   -3.8104    9.1260    5.5198 H   0  0  0  0  0  0  0  0  0  0  0  0
   -2.4261    8.3294    6.2282 H   0  0  0  0  0  0  0  0  0  0  0  0
   -3.5310    7.8688    3.4114 H   0  0  0  0  0  0  0  0  0  0  0  0
   -3.5814    6.7631    4.7836 H   0  0  0  0  0  0  0  0  0  0  0  0
    0.1105    4.4446    4.6170 H   0  0  0  0  0  0  0  0  0  0  0  0
  1  2  1  0  0  0  0
  1 37  1  0  0  0  0
  1 38  1  0  0  0  0
  1 39  1  0  0  0  0
  2  3  1  0  0  0  0
  3  4  1  0  0  0  0
  3 21  2  0  0  0  0
  4  5  2  0  0  0  0
  4 40  1  0  0  0  0
  5  6  1  0  0  0  0
  5 19  1  0  0  0  0
  6  7  1  0  0  0  0
  6 16  2  0  0  0  0
  7  8  1  0  0  0  0
  7 41  1  0  0  0  0
  8  9  1  0  0  0  0
  8 15  2  0  0  0  0
  9 10  2  0  0  0  0
  9 42  1  0  0  0  0
 10 11  1  0  0  0  0
 10 43  1  0  0  0  0
 11 12  1  0  0  0  0
 11 13  2  0  0  0  0
 13 14  1  0  0  0  0
 13 15  1  0  0  0  0
 15 44  1  0  0  0  0
 16 17  1  0  0  0  0
 17 18  2  0  0  0  0
 17 45  1  0  0  0  0
 18 19  1  0  0  0  0
 19 20  2  0  0  0  0
 20 21  1  0  0  0  0
 20 46  1  0  0  0  0
 21 22  1  0  0  0  0
 22 23  1  0  0  0  0
 23 24  1  0  0  0  0
 23 47  1  0  0  0  0
 23 48  1  0  0  0  0
 24 25  2  0  0  0  0
 24 36  1  0  0  0  0
 25 26  1  0  0  0  0
 26 27  1  0  0  0  0
 26 35  2  0  0  0  0
 27 28  1  0  0  0  0
 27 49  1  0  0  0  0
 27 50  1  0  0  0  0
 28 29  1  0  0  0  0
 28 34  1  0  0  0  0
 29 30  1  0  0  0  0
 29 51  1  0  0  0  0
 29 52  1  0  0  0  0
 30 31  1  0  0  0  0
 30 53  1  0  0  0  0
 30 54  1  0  0  0  0
 31 32  1  0  0  0  0
 31 33  1  0  0  0  0
 32 55  1  0  0  0  0
 32 56  1  0  0  0  0
 32 57  1  0  0  0  0
 33 34  1  0  0  0  0
 33 58  1  0  0  0  0
 33 59  1  0  0  0  0
 34 60  1  0  0  0  0
 34 61  1  0  0  0  0
 35 36  1  0  0  0  0
 35 62  1  0  0  0  0
M  END
$$$$
