CHEMBL255281
 OpenBabel04072215363D

 60 65  0  0  0  0  0  0  0  0999 V2000
    1.2485   -1.0454   -0.4006 C   0  0  0  0  0  0  0  0  0  0  0  0
    2.4528   -0.1463   -0.2056 C   0  0  0  0  0  0  0  0  0  0  0  0
    2.8229    0.7951   -1.0602 N   0  0  0  0  0  0  0  0  0  0  0  0
    2.0045    0.9001   -2.1723 O   0  0  0  0  0  0  0  0  0  0  0  0
    2.4511    2.0327   -2.9424 C   0  0  0  0  0  0  0  0  0  0  0  0
    3.8932    1.8111   -3.4156 C   0  0  0  0  0  0  0  0  0  0  0  0
    1.5168    2.1141   -4.1543 C   0  0  0  0  0  0  0  0  0  0  0  0
    2.3236    3.3242   -2.1226 C   0  0  0  0  0  0  0  0  0  0  0  0
    3.2575   -0.2655    1.0391 C   0  0  0  0  0  0  0  0  0  0  0  0
    2.8545   -1.2224    1.9591 C   0  0  0  0  0  0  0  0  0  0  0  0
    3.3679   -1.2129    3.2349 C   0  0  0  0  0  0  0  0  0  0  0  0
    4.2334   -0.1658    3.5250 C   0  0  0  0  0  0  0  0  0  0  0  0
    4.6388    0.1600    4.7702 N   0  0  0  0  0  0  0  0  0  0  0  0
    5.6303    1.1242    4.7500 C   0  0  0  0  0  0  0  0  0  0  0  0
    6.5381    1.3090    5.8221 C   0  0  0  0  0  0  0  0  0  0  0  0
    7.9154    1.7008    5.6351 C   0  0  0  0  0  0  0  0  0  0  0  0
    8.0486    2.2101    4.2125 C   0  0  0  0  0  0  0  0  0  0  0  0
    6.9835    2.0669    3.1458 C   0  0  0  0  0  0  0  0  0  0  0  0
    5.8012    1.3672    3.4525 C   0  0  0  0  0  0  0  0  0  0  0  0
    4.8342    0.7425    2.6191 C   0  0  0  0  0  0  0  0  0  0  0  0
    4.3237    0.6516    1.3190 C   0  0  0  0  0  0  0  0  0  0  0  0
    7.2203    2.8155    1.9143 C   0  0  0  0  0  0  0  0  0  0  0  0
    8.4579    3.4556    2.2929 N   0  0  0  0  0  0  0  0  0  0  0  0
    8.9440    3.2239    3.6060 C   0  0  0  0  0  0  0  0  0  0  0  0
    9.8692    3.9027    4.0371 O   0  0  0  0  0  0  0  0  0  0  0  0
    8.8849    0.6789    6.6077 C   0  0  0  0  0  0  0  0  0  0  0  0
    9.1894    0.8412    8.0302 C   0  0  0  0  0  0  0  0  0  0  0  0
    9.3233   -0.4551    8.6540 N   0  0  0  0  0  0  0  0  0  0  0  0
    9.0896   -0.9824   10.0038 C   0  0  0  0  0  0  0  0  0  0  0  0
    9.2753   -1.3865    7.6907 N   0  0  0  0  0  0  0  0  0  0  0  0
    8.4565   -0.7506    6.8547 C   0  0  0  0  0  0  0  0  0  0  0  0
    6.9902   -1.0879    7.0978 C   0  0  0  0  0  0  0  0  0  0  0  0
    6.2480    0.2250    6.8608 C   0  0  0  0  0  0  0  0  0  0  0  0
    0.7456   -0.8528   -1.3489 H   0  0  0  0  0  0  0  0  0  0  0  0
    0.5193   -0.8808    0.3984 H   0  0  0  0  0  0  0  0  0  0  0  0
    1.5594   -2.0982   -0.4065 H   0  0  0  0  0  0  0  0  0  0  0  0
    3.9804    0.8610   -3.9555 H   0  0  0  0  0  0  0  0  0  0  0  0
    4.5905    1.7517   -2.5718 H   0  0  0  0  0  0  0  0  0  0  0  0
    4.2316    2.6199   -4.0678 H   0  0  0  0  0  0  0  0  0  0  0  0
    1.5570    1.1921   -4.7453 H   0  0  0  0  0  0  0  0  0  0  0  0
    1.7768    2.9540   -4.8057 H   0  0  0  0  0  0  0  0  0  0  0  0
    0.4743    2.2283   -3.8349 H   0  0  0  0  0  0  0  0  0  0  0  0
    2.9714    3.3108   -1.2384 H   0  0  0  0  0  0  0  0  0  0  0  0
    1.2989    3.4510   -1.7538 H   0  0  0  0  0  0  0  0  0  0  0  0
    2.5919    4.2035   -2.7168 H   0  0  0  0  0  0  0  0  0  0  0  0
    2.0683   -1.9527    1.7666 H   0  0  0  0  0  0  0  0  0  0  0  0
    3.0317   -1.9076    3.9969 H   0  0  0  0  0  0  0  0  0  0  0  0
    4.4884   -0.4649    5.5432 H   0  0  0  0  0  0  0  0  0  0  0  0
    4.6559    1.3484    0.5536 H   0  0  0  0  0  0  0  0  0  0  0  0
    6.4378    3.5668    1.7625 H   0  0  0  0  0  0  0  0  0  0  0  0
    7.3387    2.2089    1.0147 H   0  0  0  0  0  0  0  0  0  0  0  0
    8.8133    4.2365    1.7458 H   0  0  0  0  0  0  0  0  0  0  0  0
    9.2021    1.6921    8.6987 H   0  0  0  0  0  0  0  0  0  0  0  0
    9.4293   -0.3191   10.7958 H   0  0  0  0  0  0  0  0  0  0  0  0
    9.6105   -1.9514   10.0976 H   0  0  0  0  0  0  0  0  0  0  0  0
    8.0202   -1.2180   10.1344 H   0  0  0  0  0  0  0  0  0  0  0  0
    6.7109   -1.4338    8.0966 H   0  0  0  0  0  0  0  0  0  0  0  0
    6.6608   -1.8945    6.4121 H   0  0  0  0  0  0  0  0  0  0  0  0
    6.5498   -0.2297    5.9148 H   0  0  0  0  0  0  0  0  0  0  0  0
    6.5777    0.8301    7.7076 H   0  0  0  0  0  0  0  0  0  0  0  0
  1  2  1  0  0  0  0
  1 34  1  0  0  0  0
  1 35  1  0  0  0  0
  1 36  1  0  0  0  0
  2  3  2  0  0  0  0
  2  9  1  0  0  0  0
  3  4  1  0  0  0  0
  4  5  1  0  0  0  0
  5  6  1  0  0  0  0
  5  7  1  0  0  0  0
  5  8  1  0  0  0  0
  6 37  1  0  0  0  0
  6 38  1  0  0  0  0
  6 39  1  0  0  0  0
  7 40  1  0  0  0  0
  7 41  1  0  0  0  0
  7 42  1  0  0  0  0
  8 43  1  0  0  0  0
  8 44  1  0  0  0  0
  8 45  1  0  0  0  0
  9 10  1  0  0  0  0
  9 21  2  0  0  0  0
 10 11  2  0  0  0  0
 10 46  1  0  0  0  0
 11 12  1  0  0  0  0
 11 47  1  0  0  0  0
 12 13  1  0  0  0  0
 12 20  2  0  0  0  0
 13 14  1  0  0  0  0
 13 48  1  0  0  0  0
 14 15  1  0  0  0  0
 14 19  2  0  0  0  0
 15 16  2  0  0  0  0
 15 33  1  0  0  0  0
 16 17  1  0  0  0  0
 16 26  1  0  0  0  0
 17 18  2  0  0  0  0
 17 24  1  0  0  0  0
 18 19  1  0  0  0  0
 18 22  1  0  0  0  0
 19 20  1  0  0  0  0
 20 21  1  0  0  0  0
 21 49  1  0  0  0  0
 22 23  1  0  0  0  0
 22 50  1  0  0  0  0
 22 51  1  0  0  0  0
 23 24  1  0  0  0  0
 23 52  1  0  0  0  0
 24 25  2  0  0  0  0
 26 27  2  0  0  0  0
 26 31  1  0  0  0  0
 27 28  1  0  0  0  0
 27 53  1  0  0  0  0
 28 29  1  0  0  0  0
 28 30  1  0  0  0  0
 29 54  1  0  0  0  0
 29 55  1  0  0  0  0
 29 56  1  0  0  0  0
 30 31  2  0  0  0  0
 31 32  1  0  0  0  0
 32 33  1  0  0  0  0
 32 57  1  0  0  0  0
 32 58  1  0  0  0  0
 33 59  1  0  0  0  0
 33 60  1  0  0  0  0
M  END
$$$$
