CHEMBL3633298
 OpenBabel04072215373D

 47 50  0  0  0  0  0  0  0  0999 V2000
    0.5744    1.2979   -0.9891 C   0  0  0  0  0  0  0  0  0  0  0  0
    1.9885    1.2551   -1.1573 O   0  0  0  0  0  0  0  0  0  0  0  0
    2.6425    2.4594   -1.1223 C   0  0  0  0  0  0  0  0  0  0  0  0
    2.0242    3.7017   -0.9739 C   0  0  0  0  0  0  0  0  0  0  0  0
    2.7897    4.8622   -0.9499 C   0  0  0  0  0  0  0  0  0  0  0  0
    4.1772    4.7840   -1.0472 C   0  0  0  0  0  0  0  0  0  0  0  0
    4.8225    3.5477   -1.1535 C   0  0  0  0  0  0  0  0  0  0  0  0
    6.2374    3.4380   -1.1827 N   0  0  0  0  0  0  0  0  0  0  0  0
    7.0881    4.3770   -0.6288 C   0  0  0  0  0  0  0  0  0  0  0  0
    6.7162    5.3460    0.0294 O   0  0  0  0  0  0  0  0  0  0  0  0
    8.4284    4.1124   -0.9015 N   0  0  0  0  0  0  0  0  0  0  0  0
    9.4433    4.9399   -0.3584 C   0  0  0  0  0  0  0  0  0  0  0  0
    9.3774    5.4006    0.9569 C   0  0  0  0  0  0  0  0  0  0  0  0
   10.2975    6.3345    1.4206 C   0  0  0  0  0  0  0  0  0  0  0  0
   11.2773    6.8302    0.5599 C   0  0  0  0  0  0  0  0  0  0  0  0
   11.4079    6.3528   -0.7583 C   0  0  0  0  0  0  0  0  0  0  0  0
   12.4816    6.8519   -1.6487 C   0  0  0  0  0  0  0  0  0  0  0  0
   13.7700    7.1528   -1.1378 C   0  0  0  0  0  0  0  0  0  0  0  0
   14.8433    7.4945   -1.9602 C   0  0  0  0  0  0  0  0  0  0  0  0
   14.7002    7.5084   -3.3431 C   0  0  0  0  0  0  0  0  0  0  0  0
   13.4231    7.2588   -3.8504 C   0  0  0  0  0  0  0  0  0  0  0  0
   12.9786    7.1870   -5.1424 N   0  0  0  0  0  0  0  0  0  0  0  0
   11.6519    7.0673   -5.2624 N   0  0  0  0  0  0  0  0  0  0  0  0
   11.2295    6.9837   -4.0046 C   0  0  0  0  0  0  0  0  0  0  0  0
    9.9184    6.9406   -3.7128 N   0  0  0  0  0  0  0  0  0  0  0  0
   12.3040    6.9984   -3.0558 C   0  0  0  0  0  0  0  0  0  0  0  0
   10.5035    5.3494   -1.1726 C   0  0  0  0  0  0  0  0  0  0  0  0
    4.0421    2.3874   -1.2307 C   0  0  0  0  0  0  0  0  0  0  0  0
    0.2014    0.2697   -0.9909 H   0  0  0  0  0  0  0  0  0  0  0  0
    0.0963    1.8277   -1.8209 H   0  0  0  0  0  0  0  0  0  0  0  0
    0.2997    1.7465   -0.0270 H   0  0  0  0  0  0  0  0  0  0  0  0
    0.9486    3.8056   -0.8748 H   0  0  0  0  0  0  0  0  0  0  0  0
    2.3125    5.8321   -0.8437 H   0  0  0  0  0  0  0  0  0  0  0  0
    4.7363    5.7162   -1.0368 H   0  0  0  0  0  0  0  0  0  0  0  0
    6.6260    2.5130   -1.3007 H   0  0  0  0  0  0  0  0  0  0  0  0
    8.5934    3.7465   -1.8301 H   0  0  0  0  0  0  0  0  0  0  0  0
    8.5954    5.0533    1.6281 H   0  0  0  0  0  0  0  0  0  0  0  0
   10.2300    6.6975    2.4427 H   0  0  0  0  0  0  0  0  0  0  0  0
   11.9432    7.6019    0.9407 H   0  0  0  0  0  0  0  0  0  0  0  0
   13.9578    7.0919   -0.0670 H   0  0  0  0  0  0  0  0  0  0  0  0
   15.8105    7.7169   -1.5152 H   0  0  0  0  0  0  0  0  0  0  0  0
   15.5434    7.7239   -3.9911 H   0  0  0  0  0  0  0  0  0  0  0  0
   13.5340    7.2343   -5.9882 H   0  0  0  0  0  0  0  0  0  0  0  0
    9.2985    7.2080   -4.4700 H   0  0  0  0  0  0  0  0  0  0  0  0
    9.6067    7.2943   -2.8130 H   0  0  0  0  0  0  0  0  0  0  0  0
   10.5890    4.9342   -2.1740 H   0  0  0  0  0  0  0  0  0  0  0  0
    4.5067    1.4115   -1.3335 H   0  0  0  0  0  0  0  0  0  0  0  0
  1  2  1  0  0  0  0
  1 29  1  0  0  0  0
  1 30  1  0  0  0  0
  1 31  1  0  0  0  0
  2  3  1  0  0  0  0
  3  4  1  0  0  0  0
  3 28  2  0  0  0  0
  4  5  2  0  0  0  0
  4 32  1  0  0  0  0
  5  6  1  0  0  0  0
  5 33  1  0  0  0  0
  6  7  2  0  0  0  0
  6 34  1  0  0  0  0
  7  8  1  0  0  0  0
  7 28  1  0  0  0  0
  8  9  1  0  0  0  0
  8 35  1  0  0  0  0
  9 10  2  0  0  0  0
  9 11  1  0  0  0  0
 11 12  1  0  0  0  0
 11 36  1  0  0  0  0
 12 13  1  0  0  0  0
 12 27  2  0  0  0  0
 13 14  2  0  0  0  0
 13 37  1  0  0  0  0
 14 15  1  0  0  0  0
 14 38  1  0  0  0  0
 15 16  2  0  0  0  0
 15 39  1  0  0  0  0
 16 17  1  0  0  0  0
 16 27  1  0  0  0  0
 17 18  1  0  0  0  0
 17 26  2  0  0  0  0
 18 19  2  0  0  0  0
 18 40  1  0  0  0  0
 19 20  1  0  0  0  0
 19 41  1  0  0  0  0
 20 21  2  0  0  0  0
 20 42  1  0  0  0  0
 21 22  1  0  0  0  0
 21 26  1  0  0  0  0
 22 23  1  0  0  0  0
 22 43  1  0  0  0  0
 23 24  2  0  0  0  0
 24 25  1  0  0  0  0
 24 26  1  0  0  0  0
 25 44  1  0  0  0  0
 25 45  1  0  0  0  0
 27 46  1  0  0  0  0
 28 47  1  0  0  0  0
M  END
$$$$
