CHEMBL1681946
 OpenBabel04072215363D

 46 48  0  0  0  0  0  0  0  0999 V2000
    9.2753    7.1518   -3.0946 C   0  0  0  0  0  0  0  0  0  0  0  0
    8.6860    5.8701   -3.3041 O   0  0  0  0  0  0  0  0  0  0  0  0
    7.6394    5.7266   -2.3862 N   0  0  0  0  0  0  0  0  0  0  0  0
    7.0467    4.5854   -2.5562 C   0  0  0  0  0  0  0  0  0  0  0  0
    5.8959    4.2100   -1.7201 C   0  0  0  0  0  0  0  0  0  0  0  0
    5.0841    5.1676   -1.1191 C   0  0  0  0  0  0  0  0  0  0  0  0
    5.2194    6.5339   -1.3615 N   0  0  0  0  0  0  0  0  0  0  0  0
    4.0290    4.8496   -0.3509 N   0  0  0  0  0  0  0  0  0  0  0  0
    3.8012    3.5481   -0.1576 C   0  0  0  0  0  0  0  0  0  0  0  0
    4.5339    2.5484   -0.6526 N   0  0  0  0  0  0  0  0  0  0  0  0
    5.5626    2.8942   -1.4614 C   0  0  0  0  0  0  0  0  0  0  0  0
    6.3304    1.8629   -2.0138 O   0  0  0  0  0  0  0  0  0  0  0  0
    5.7173    0.6247   -2.1096 C   0  0  0  0  0  0  0  0  0  0  0  0
    4.4363    0.4909   -2.6369 C   0  0  0  0  0  0  0  0  0  0  0  0
    3.7958   -0.7465   -2.6286 C   0  0  0  0  0  0  0  0  0  0  0  0
    4.4239   -1.8898   -2.1271 C   0  0  0  0  0  0  0  0  0  0  0  0
    3.7336   -3.1317   -2.0142 N   0  0  0  0  0  0  0  0  0  0  0  0
    2.3560   -3.2728   -2.0811 C   0  0  0  0  0  0  0  0  0  0  0  0
    1.5744   -2.3417   -2.2582 O   0  0  0  0  0  0  0  0  0  0  0  0
    1.9221   -4.5724   -1.8569 N   0  0  0  0  0  0  0  0  0  0  0  0
    0.5225   -4.8333   -1.8431 C   0  0  0  0  0  0  0  0  0  0  0  0
   -0.3186   -4.3288   -2.8418 C   0  0  0  0  0  0  0  0  0  0  0  0
   -1.7046   -4.4637   -2.7374 C   0  0  0  0  0  0  0  0  0  0  0  0
   -2.2529   -5.1069   -1.6323 C   0  0  0  0  0  0  0  0  0  0  0  0
   -1.4163   -5.6502   -0.6565 C   0  0  0  0  0  0  0  0  0  0  0  0
   -0.0247   -5.5420   -0.7740 C   0  0  0  0  0  0  0  0  0  0  0  0
    5.7587   -1.7685   -1.7058 C   0  0  0  0  0  0  0  0  0  0  0  0
    6.6357   -3.1494   -1.1367 Cl  0  0  0  0  0  0  0  0  0  0  0  0
    6.4056   -0.5173   -1.6932 C   0  0  0  0  0  0  0  0  0  0  0  0
   10.1549    7.2437   -3.7362 H   0  0  0  0  0  0  0  0  0  0  0  0
    9.5876    7.2600   -2.0505 H   0  0  0  0  0  0  0  0  0  0  0  0
    8.5633    7.9428   -3.3528 H   0  0  0  0  0  0  0  0  0  0  0  0
    7.3917    3.8661   -3.3203 H   0  0  0  0  0  0  0  0  0  0  0  0
    6.1991    6.8200   -1.3657 H   0  0  0  0  0  0  0  0  0  0  0  0
    4.6286    7.0562   -0.7238 H   0  0  0  0  0  0  0  0  0  0  0  0
    2.9392    3.2798    0.4434 H   0  0  0  0  0  0  0  0  0  0  0  0
    3.8862    1.3531   -3.0049 H   0  0  0  0  0  0  0  0  0  0  0  0
    2.7851   -0.7634   -3.0222 H   0  0  0  0  0  0  0  0  0  0  0  0
    4.2861   -3.9355   -1.7339 H   0  0  0  0  0  0  0  0  0  0  0  0
    2.4766   -5.0990   -1.1995 H   0  0  0  0  0  0  0  0  0  0  0  0
    0.0919   -3.7907   -3.6931 H   0  0  0  0  0  0  0  0  0  0  0  0
   -2.3496   -4.0382   -3.5020 H   0  0  0  0  0  0  0  0  0  0  0  0
   -3.3328   -5.1729   -1.5260 H   0  0  0  0  0  0  0  0  0  0  0  0
   -1.8497   -6.1316    0.2157 H   0  0  0  0  0  0  0  0  0  0  0  0
    0.6019   -5.9322    0.0195 H   0  0  0  0  0  0  0  0  0  0  0  0
    7.4251   -0.4307   -1.3288 H   0  0  0  0  0  0  0  0  0  0  0  0
  1  2  1  0  0  0  0
  1 30  1  0  0  0  0
  1 31  1  0  0  0  0
  1 32  1  0  0  0  0
  2  3  1  0  0  0  0
  3  4  2  0  0  0  0
  4  5  1  0  0  0  0
  4 33  1  0  0  0  0
  5  6  1  0  0  0  0
  5 11  2  0  0  0  0
  6  7  1  0  0  0  0
  6  8  2  0  0  0  0
  7 34  1  0  0  0  0
  7 35  1  0  0  0  0
  8  9  1  0  0  0  0
  9 10  2  0  0  0  0
  9 36  1  0  0  0  0
 10 11  1  0  0  0  0
 11 12  1  0  0  0  0
 12 13  1  0  0  0  0
 13 14  1  0  0  0  0
 13 29  2  0  0  0  0
 14 15  2  0  0  0  0
 14 37  1  0  0  0  0
 15 16  1  0  0  0  0
 15 38  1  0  0  0  0
 16 17  1  0  0  0  0
 16 27  2  0  0  0  0
 17 18  1  0  0  0  0
 17 39  1  0  0  0  0
 18 19  2  0  0  0  0
 18 20  1  0  0  0  0
 20 21  1  0  0  0  0
 20 40  1  0  0  0  0
 21 22  1  0  0  0  0
 21 26  2  0  0  0  0
 22 23  2  0  0  0  0
 22 41  1  0  0  0  0
 23 24  1  0  0  0  0
 23 42  1  0  0  0  0
 24 25  2  0  0  0  0
 24 43  1  0  0  0  0
 25 26  1  0  0  0  0
 25 44  1  0  0  0  0
 26 45  1  0  0  0  0
 27 28  1  0  0  0  0
 27 29  1  0  0  0  0
 29 46  1  0  0  0  0
M  END
$$$$
