CHEMBL3805771
 OpenBabel04072215373D

 77 81  0  0  0  0  0  0  0  0999 V2000
    7.1658    0.6743    2.1844 C   0  0  0  0  0  0  0  0  0  0  0  0
    6.1613    0.7061    3.3308 C   0  0  0  0  0  0  0  0  0  0  0  0
    4.7576    0.6668    2.8996 N   0  0  0  0  0  0  0  0  0  0  0  0
    4.3270    1.8481    2.1213 C   0  0  0  0  0  0  0  0  0  0  0  0
    4.0309    3.1250    2.9554 C   0  0  0  0  0  0  0  0  0  0  0  0
    3.0774    2.9249    4.0772 N   0  0  0  0  0  0  0  0  0  0  0  0
    1.7151    2.6871    3.5585 C   0  0  0  0  0  0  0  0  0  0  0  0
    0.6621    2.4842    4.6355 C   0  0  0  0  0  0  0  0  0  0  0  0
    0.4276    1.1572    5.0336 C   0  0  0  0  0  0  0  0  0  0  0  0
   -0.5296    0.8283    5.9807 C   0  0  0  0  0  0  0  0  0  0  0  0
   -1.3103    1.8138    6.5651 C   0  0  0  0  0  0  0  0  0  0  0  0
   -2.3561    1.4906    7.4566 N   0  0  0  0  0  0  0  0  0  0  0  0
   -2.9457    0.2335    7.5640 C   0  0  0  0  0  0  0  0  0  0  0  0
   -2.6567   -0.7672    6.9088 O   0  0  0  0  0  0  0  0  0  0  0  0
   -4.0154    0.1333    8.6464 C   0  0  0  0  0  0  0  0  0  0  0  0
   -3.3671   -0.2345    9.8990 N   0  0  0  0  0  0  0  0  0  0  0  0
   -4.1126   -0.4745   11.0465 C   0  0  0  0  0  0  0  0  0  0  0  0
   -5.4927   -0.3020   11.1330 C   0  0  0  0  0  0  0  0  0  0  0  0
   -6.1598   -0.4363   12.3551 C   0  0  0  0  0  0  0  0  0  0  0  0
   -5.4677   -0.7353   13.5392 C   0  0  0  0  0  0  0  0  0  0  0  0
   -6.1744   -0.8295   14.8290 C   0  0  0  0  0  0  0  0  0  0  0  0
   -7.4857   -1.2987   14.9418 C   0  0  0  0  0  0  0  0  0  0  0  0
   -8.1274   -1.3570   16.1798 C   0  0  0  0  0  0  0  0  0  0  0  0
   -7.4314   -0.9489   17.3129 C   0  0  0  0  0  0  0  0  0  0  0  0
   -8.0627   -1.0256   18.5594 N   0  0  0  0  0  0  0  0  0  0  0  0
   -7.4456   -0.6750   19.7360 C   0  0  0  0  0  0  0  0  0  0  0  0
   -6.3039   -0.2601   19.8923 O   0  0  0  0  0  0  0  0  0  0  0  0
   -8.3019   -0.8369   20.9553 C   0  0  0  0  0  0  0  0  0  0  0  0
   -8.1536    0.1522   22.0911 C   0  0  0  0  0  0  0  0  0  0  0  0
   -7.6492   -1.2520   22.2560 C   0  0  0  0  0  0  0  0  0  0  0  0
   -6.1746   -0.4935   17.2296 N   0  0  0  0  0  0  0  0  0  0  0  0
   -5.5779   -0.4348   16.0226 C   0  0  0  0  0  0  0  0  0  0  0  0
   -4.0805   -0.9161   13.4426 C   0  0  0  0  0  0  0  0  0  0  0  0
   -3.4185   -0.7853   12.2187 C   0  0  0  0  0  0  0  0  0  0  0  0
   -1.0527    3.1517    6.2390 C   0  0  0  0  0  0  0  0  0  0  0  0
   -0.0843    3.5092    5.2565 C   0  0  0  0  0  0  0  0  0  0  0  0
    0.0226    4.9761    4.8900 C   0  0  0  0  0  0  0  0  0  0  0  0
    0.9614    5.3020    3.9644 F   0  0  0  0  0  0  0  0  0  0  0  0
   -1.1574    5.4415    4.3774 F   0  0  0  0  0  0  0  0  0  0  0  0
    0.2795    5.7666    5.9701 F   0  0  0  0  0  0  0  0  0  0  0  0
    3.6026    1.7970    4.8805 C   0  0  0  0  0  0  0  0  0  0  0  0
    3.8687    0.5004    4.0704 C   0  0  0  0  0  0  0  0  0  0  0  0
    8.1764    0.5459    2.5875 H   0  0  0  0  0  0  0  0  0  0  0  0
    7.1614    1.6040    1.6089 H   0  0  0  0  0  0  0  0  0  0  0  0
    6.9715   -0.1616    1.5038 H   0  0  0  0  0  0  0  0  0  0  0  0
    6.3682    1.5697    3.9717 H   0  0  0  0  0  0  0  0  0  0  0  0
    6.3581   -0.1913    3.9322 H   0  0  0  0  0  0  0  0  0  0  0  0
    3.4145    1.5663    1.5798 H   0  0  0  0  0  0  0  0  0  0  0  0
    5.0437    2.0854    1.3289 H   0  0  0  0  0  0  0  0  0  0  0  0
    3.6738    3.9244    2.2948 H   0  0  0  0  0  0  0  0  0  0  0  0
    4.9764    3.4950    3.3741 H   0  0  0  0  0  0  0  0  0  0  0  0
    1.6802    1.8116    2.8981 H   0  0  0  0  0  0  0  0  0  0  0  0
    1.4049    3.5072    2.9035 H   0  0  0  0  0  0  0  0  0  0  0  0
    0.9966    0.3384    4.6063 H   0  0  0  0  0  0  0  0  0  0  0  0
   -0.6269   -0.2191    6.2431 H   0  0  0  0  0  0  0  0  0  0  0  0
   -2.7585    2.2463    7.9997 H   0  0  0  0  0  0  0  0  0  0  0  0
   -4.7370   -0.6284    8.3263 H   0  0  0  0  0  0  0  0  0  0  0  0
   -4.5381    1.0917    8.7364 H   0  0  0  0  0  0  0  0  0  0  0  0
   -2.6286   -0.9291    9.7759 H   0  0  0  0  0  0  0  0  0  0  0  0
   -6.0895   -0.0645   10.2586 H   0  0  0  0  0  0  0  0  0  0  0  0
   -7.2341   -0.2710   12.3680 H   0  0  0  0  0  0  0  0  0  0  0  0
   -8.0301   -1.6371   14.0592 H   0  0  0  0  0  0  0  0  0  0  0  0
   -9.1484   -1.7196   16.2390 H   0  0  0  0  0  0  0  0  0  0  0  0
   -9.0138   -1.3662   18.5844 H   0  0  0  0  0  0  0  0  0  0  0  0
   -9.3034   -1.2162   20.7821 H   0  0  0  0  0  0  0  0  0  0  0  0
   -9.0359    0.4423   22.6456 H   0  0  0  0  0  0  0  0  0  0  0  0
   -7.4169    0.9436   21.9829 H   0  0  0  0  0  0  0  0  0  0  0  0
   -8.1908   -1.9128   22.9196 H   0  0  0  0  0  0  0  0  0  0  0  0
   -6.5729   -1.4029   22.2612 H   0  0  0  0  0  0  0  0  0  0  0  0
   -4.5710   -0.0312   16.0599 H   0  0  0  0  0  0  0  0  0  0  0  0
   -3.4814   -1.1538   14.3192 H   0  0  0  0  0  0  0  0  0  0  0  0
   -2.3370   -0.9004   12.1940 H   0  0  0  0  0  0  0  0  0  0  0  0
   -1.6398    3.9444    6.7036 H   0  0  0  0  0  0  0  0  0  0  0  0
    2.9484    1.5823    5.7314 H   0  0  0  0  0  0  0  0  0  0  0  0
    4.5400    2.1248    5.3489 H   0  0  0  0  0  0  0  0  0  0  0  0
    2.9240    0.0957    3.6943 H   0  0  0  0  0  0  0  0  0  0  0  0
    4.2529   -0.2741    4.7456 H   0  0  0  0  0  0  0  0  0  0  0  0
  1  2  1  0  0  0  0
  1 43  1  0  0  0  0
  1 44  1  0  0  0  0
  1 45  1  0  0  0  0
  2  3  1  0  0  0  0
  2 46  1  0  0  0  0
  2 47  1  0  0  0  0
  3  4  1  0  0  0  0
  3 42  1  0  0  0  0
  4  5  1  0  0  0  0
  4 48  1  0  0  0  0
  4 49  1  0  0  0  0
  5  6  1  0  0  0  0
  5 50  1  0  0  0  0
  5 51  1  0  0  0  0
  6  7  1  0  0  0  0
  6 41  1  0  0  0  0
  7  8  1  0  0  0  0
  7 52  1  0  0  0  0
  7 53  1  0  0  0  0
  8  9  1  0  0  0  0
  8 36  2  0  0  0  0
  9 10  2  0  0  0  0
  9 54  1  0  0  0  0
 10 11  1  0  0  0  0
 10 55  1  0  0  0  0
 11 12  1  0  0  0  0
 11 35  2  0  0  0  0
 12 13  1  0  0  0  0
 12 56  1  0  0  0  0
 13 14  2  0  0  0  0
 13 15  1  0  0  0  0
 15 16  1  0  0  0  0
 15 57  1  0  0  0  0
 15 58  1  0  0  0  0
 16 17  1  0  0  0  0
 16 59  1  0  0  0  0
 17 18  1  0  0  0  0
 17 34  2  0  0  0  0
 18 19  2  0  0  0  0
 18 60  1  0  0  0  0
 19 20  1  0  0  0  0
 19 61  1  0  0  0  0
 20 21  1  0  0  0  0
 20 33  2  0  0  0  0
 21 22  1  0  0  0  0
 21 32  2  0  0  0  0
 22 23  2  0  0  0  0
 22 62  1  0  0  0  0
 23 24  1  0  0  0  0
 23 63  1  0  0  0  0
 24 25  1  0  0  0  0
 24 31  2  0  0  0  0
 25 26  1  0  0  0  0
 25 64  1  0  0  0  0
 26 27  2  0  0  0  0
 26 28  1  0  0  0  0
 28 29  1  0  0  0  0
 28 30  1  0  0  0  0
 28 65  1  0  0  0  0
 29 30  1  0  0  0  0
 29 66  1  0  0  0  0
 29 67  1  0  0  0  0
 30 68  1  0  0  0  0
 30 69  1  0  0  0  0
 31 32  1  0  0  0  0
 32 70  1  0  0  0  0
 33 34  1  0  0  0  0
 33 71  1  0  0  0  0
 34 72  1  0  0  0  0
 35 36  1  0  0  0  0
 35 73  1  0  0  0  0
 36 37  1  0  0  0  0
 37 38  1  0  0  0  0
 37 39  1  0  0  0  0
 37 40  1  0  0  0  0
 41 42  1  0  0  0  0
 41 74  1  0  0  0  0
 41 75  1  0  0  0  0
 42 76  1  0  0  0  0
 42 77  1  0  0  0  0
M  END
$$$$
