CHEMBL3321900
 OpenBabel04072215363D

 41 45  0  0  0  0  0  0  0  0999 V2000
    1.9179    0.1647    1.0614 F   0  0  0  0  0  0  0  0  0  0  0  0
    0.6883    0.1113    0.5320 C   0  0  0  0  0  0  0  0  0  0  0  0
    0.1215    1.2660    0.0070 C   0  0  0  0  0  0  0  0  0  0  0  0
   -1.1581    1.2138   -0.5413 C   0  0  0  0  0  0  0  0  0  0  0  0
   -1.8567    0.0022   -0.5690 C   0  0  0  0  0  0  0  0  0  0  0  0
   -1.2803   -1.1664   -0.0472 C   0  0  0  0  0  0  0  0  0  0  0  0
   -1.9849   -2.4474   -0.0508 C   0  0  0  0  0  0  0  0  0  0  0  0
   -1.8111   -3.4196    0.8232 N   0  0  0  0  0  0  0  0  0  0  0  0
   -2.6607   -4.4254    0.4465 C   0  0  0  0  0  0  0  0  0  0  0  0
   -2.8918   -5.6638    1.0472 C   0  0  0  0  0  0  0  0  0  0  0  0
   -3.8260   -6.5227    0.4576 C   0  0  0  0  0  0  0  0  0  0  0  0
   -4.5106   -6.1889   -0.7277 C   0  0  0  0  0  0  0  0  0  0  0  0
   -5.5028   -7.0509   -1.2565 N   0  0  0  0  0  0  0  0  0  0  0  0
   -5.5299   -8.4616   -1.1129 C   0  0  0  0  0  0  0  0  0  0  0  0
   -4.3532   -9.1103   -1.0278 N   0  0  0  0  0  0  0  0  0  0  0  0
   -4.4030  -10.4284   -0.8353 C   0  0  0  0  0  0  0  0  0  0  0  0
   -5.5104  -11.1627   -0.7095 N   0  0  0  0  0  0  0  0  0  0  0  0
   -6.6743  -10.5140   -0.8053 C   0  0  0  0  0  0  0  0  0  0  0  0
   -7.8469  -11.2395   -0.6376 C   0  0  0  0  0  0  0  0  0  0  0  0
   -9.1052  -10.6397   -0.7194 C   0  0  0  0  0  0  0  0  0  0  0  0
   -9.2046   -9.2807   -0.9863 C   0  0  0  0  0  0  0  0  0  0  0  0
   -8.0424   -8.5269   -1.1450 C   0  0  0  0  0  0  0  0  0  0  0  0
   -6.7641   -9.1348   -1.0462 C   0  0  0  0  0  0  0  0  0  0  0  0
   -4.2979   -4.9273   -1.3121 C   0  0  0  0  0  0  0  0  0  0  0  0
   -3.3621   -4.0833   -0.7007 C   0  0  0  0  0  0  0  0  0  0  0  0
   -2.9102   -2.8235   -0.9997 N   0  0  0  0  0  0  0  0  0  0  0  0
    0.0008   -1.0958    0.5151 C   0  0  0  0  0  0  0  0  0  0  0  0
    0.6773    2.1975    0.0373 H   0  0  0  0  0  0  0  0  0  0  0  0
   -1.6157    2.1166   -0.9383 H   0  0  0  0  0  0  0  0  0  0  0  0
   -2.8644   -0.0056   -0.9762 H   0  0  0  0  0  0  0  0  0  0  0  0
   -2.3674   -5.9445    1.9532 H   0  0  0  0  0  0  0  0  0  0  0  0
   -4.0166   -7.4743    0.9475 H   0  0  0  0  0  0  0  0  0  0  0  0
   -5.8174   -6.7931   -2.1841 H   0  0  0  0  0  0  0  0  0  0  0  0
   -3.4540  -10.9493   -0.7671 H   0  0  0  0  0  0  0  0  0  0  0  0
   -7.7767  -12.3033   -0.4209 H   0  0  0  0  0  0  0  0  0  0  0  0
   -9.9999  -11.2383   -0.5682 H   0  0  0  0  0  0  0  0  0  0  0  0
  -10.1811   -8.8074   -1.0528 H   0  0  0  0  0  0  0  0  0  0  0  0
   -8.1315   -7.4582   -1.3256 H   0  0  0  0  0  0  0  0  0  0  0  0
   -4.8306   -4.6190   -2.2050 H   0  0  0  0  0  0  0  0  0  0  0  0
   -3.1860   -2.2717   -1.7962 H   0  0  0  0  0  0  0  0  0  0  0  0
    0.4689   -1.9802    0.9411 H   0  0  0  0  0  0  0  0  0  0  0  0
  1  2  1  0  0  0  0
  2  3  1  0  0  0  0
  2 27  2  0  0  0  0
  3  4  2  0  0  0  0
  3 28  1  0  0  0  0
  4  5  1  0  0  0  0
  4 29  1  0  0  0  0
  5  6  2  0  0  0  0
  5 30  1  0  0  0  0
  6  7  1  0  0  0  0
  6 27  1  0  0  0  0
  7  8  2  0  0  0  0
  7 26  1  0  0  0  0
  8  9  1  0  0  0  0
  9 10  1  0  0  0  0
  9 25  2  0  0  0  0
 10 11  2  0  0  0  0
 10 31  1  0  0  0  0
 11 12  1  0  0  0  0
 11 32  1  0  0  0  0
 12 13  1  0  0  0  0
 12 24  2  0  0  0  0
 13 14  1  0  0  0  0
 13 33  1  0  0  0  0
 14 15  1  0  0  0  0
 14 23  2  0  0  0  0
 15 16  2  0  0  0  0
 16 17  1  0  0  0  0
 16 34  1  0  0  0  0
 17 18  2  0  0  0  0
 18 19  1  0  0  0  0
 18 23  1  0  0  0  0
 19 20  2  0  0  0  0
 19 35  1  0  0  0  0
 20 21  1  0  0  0  0
 20 36  1  0  0  0  0
 21 22  2  0  0  0  0
 21 37  1  0  0  0  0
 22 23  1  0  0  0  0
 22 38  1  0  0  0  0
 24 25  1  0  0  0  0
 24 39  1  0  0  0  0
 25 26  1  0  0  0  0
 26 40  1  0  0  0  0
 27 41  1  0  0  0  0
M  END
$$$$
