CHEMBL535
 OpenBabel04072215383D

 56 58  0  0  0  0  0  0  0  0999 V2000
    4.8498    1.3560    2.2055 C   0  0  0  0  0  0  0  0  0  0  0  0
    4.4657    1.5746    0.7462 C   0  0  0  0  0  0  0  0  0  0  0  0
    4.8572    0.4938   -0.1776 N   0  0  0  0  0  0  0  0  0  0  0  0
    4.3502   -0.8352    0.2197 C   0  0  0  0  0  0  0  0  0  0  0  0
    2.8337   -1.0291    0.2006 C   0  0  0  0  0  0  0  0  0  0  0  0
    4.4689    0.8171   -1.5722 C   0  0  0  0  0  0  0  0  0  0  0  0
    5.0635    2.1203   -2.1409 C   0  0  0  0  0  0  0  0  0  0  0  0
    6.5101    2.1365   -2.1717 N   0  0  0  0  0  0  0  0  0  0  0  0
    7.1699    3.2469   -2.6510 C   0  0  0  0  0  0  0  0  0  0  0  0
    6.5647    4.2321   -3.0675 O   0  0  0  0  0  0  0  0  0  0  0  0
    8.6355    3.2022   -2.5873 C   0  0  0  0  0  0  0  0  0  0  0  0
    9.4667    2.0956   -2.6999 C   0  0  0  0  0  0  0  0  0  0  0  0
    9.2175    0.6473   -2.9406 C   0  0  0  0  0  0  0  0  0  0  0  0
   10.7671    2.5364   -2.6196 N   0  0  0  0  0  0  0  0  0  0  0  0
   10.8188    3.8991   -2.4924 C   0  0  0  0  0  0  0  0  0  0  0  0
   12.0446    4.6120   -2.4222 C   0  0  0  0  0  0  0  0  0  0  0  0
   13.3092    4.1638   -2.4659 C   0  0  0  0  0  0  0  0  0  0  0  0
   13.8824    2.7714   -2.5980 C   0  0  0  0  0  0  0  0  0  0  0  0
   13.2847    1.7196   -2.7058 O   0  0  0  0  0  0  0  0  0  0  0  0
   15.2591    2.9397   -2.5732 N   0  0  0  0  0  0  0  0  0  0  0  0
   15.6083    4.2775   -2.4419 C   0  0  0  0  0  0  0  0  0  0  0  0
   16.8870    4.8030   -2.3782 C   0  0  0  0  0  0  0  0  0  0  0  0
   17.0047    6.1866   -2.2391 C   0  0  0  0  0  0  0  0  0  0  0  0
   15.8550    6.9922   -2.1720 C   0  0  0  0  0  0  0  0  0  0  0  0
   15.9931    8.3174   -2.0415 F   0  0  0  0  0  0  0  0  0  0  0  0
   14.5738    6.4495   -2.2383 C   0  0  0  0  0  0  0  0  0  0  0  0
   14.4622    5.0777   -2.3715 C   0  0  0  0  0  0  0  0  0  0  0  0
    9.5041    4.3507   -2.4670 C   0  0  0  0  0  0  0  0  0  0  0  0
    9.0419    5.7669   -2.3409 C   0  0  0  0  0  0  0  0  0  0  0  0
    4.7568    2.3021    2.7507 H   0  0  0  0  0  0  0  0  0  0  0  0
    5.8873    1.0203    2.3007 H   0  0  0  0  0  0  0  0  0  0  0  0
    4.1939    0.6294    2.6938 H   0  0  0  0  0  0  0  0  0  0  0  0
    4.9814    2.4936    0.4512 H   0  0  0  0  0  0  0  0  0  0  0  0
    3.3907    1.7802    0.6823 H   0  0  0  0  0  0  0  0  0  0  0  0
    4.7247   -1.0849    1.2191 H   0  0  0  0  0  0  0  0  0  0  0  0
    4.7998   -1.5943   -0.4344 H   0  0  0  0  0  0  0  0  0  0  0  0
    2.3000   -0.2023    0.6769 H   0  0  0  0  0  0  0  0  0  0  0  0
    2.5682   -1.9425    0.7442 H   0  0  0  0  0  0  0  0  0  0  0  0
    2.4609   -1.1373   -0.8231 H   0  0  0  0  0  0  0  0  0  0  0  0
    3.3776    0.8895   -1.6554 H   0  0  0  0  0  0  0  0  0  0  0  0
    4.7908   -0.0052   -2.2244 H   0  0  0  0  0  0  0  0  0  0  0  0
    4.7231    2.9965   -1.5783 H   0  0  0  0  0  0  0  0  0  0  0  0
    4.7105    2.2617   -3.1681 H   0  0  0  0  0  0  0  0  0  0  0  0
    7.0139    1.5047   -1.5619 H   0  0  0  0  0  0  0  0  0  0  0  0
    8.1604    0.4144   -3.0788 H   0  0  0  0  0  0  0  0  0  0  0  0
    9.5900    0.0552   -2.0982 H   0  0  0  0  0  0  0  0  0  0  0  0
    9.7380    0.3192   -3.8469 H   0  0  0  0  0  0  0  0  0  0  0  0
   11.5773    1.9264   -2.6849 H   0  0  0  0  0  0  0  0  0  0  0  0
   11.9158    5.6868   -2.3217 H   0  0  0  0  0  0  0  0  0  0  0  0
   15.9019    2.1655   -2.6445 H   0  0  0  0  0  0  0  0  0  0  0  0
   17.7666    4.1752   -2.4304 H   0  0  0  0  0  0  0  0  0  0  0  0
   17.9805    6.6605   -2.1838 H   0  0  0  0  0  0  0  0  0  0  0  0
   13.7132    7.1019   -2.1823 H   0  0  0  0  0  0  0  0  0  0  0  0
    9.8728    6.4715   -2.2610 H   0  0  0  0  0  0  0  0  0  0  0  0
    8.4256    5.8854   -1.4438 H   0  0  0  0  0  0  0  0  0  0  0  0
    8.4533    6.0599   -3.2157 H   0  0  0  0  0  0  0  0  0  0  0  0
  1  2  1  0  0  0  0
  1 30  1  0  0  0  0
  1 31  1  0  0  0  0
  1 32  1  0  0  0  0
  2  3  1  0  0  0  0
  2 33  1  0  0  0  0
  2 34  1  0  0  0  0
  3  4  1  0  0  0  0
  3  6  1  0  0  0  0
  4  5  1  0  0  0  0
  4 35  1  0  0  0  0
  4 36  1  0  0  0  0
  5 37  1  0  0  0  0
  5 38  1  0  0  0  0
  5 39  1  0  0  0  0
  6  7  1  0  0  0  0
  6 40  1  0  0  0  0
  6 41  1  0  0  0  0
  7  8  1  0  0  0  0
  7 42  1  0  0  0  0
  7 43  1  0  0  0  0
  8  9  1  0  0  0  0
  8 44  1  0  0  0  0
  9 10  2  0  0  0  0
  9 11  1  0  0  0  0
 11 12  2  0  0  0  0
 11 28  1  0  0  0  0
 12 13  1  0  0  0  0
 12 14  1  0  0  0  0
 13 45  1  0  0  0  0
 13 46  1  0  0  0  0
 13 47  1  0  0  0  0
 14 15  1  0  0  0  0
 14 48  1  0  0  0  0
 15 16  1  0  0  0  0
 15 28  2  0  0  0  0
 16 17  2  0  0  0  0
 16 49  1  0  0  0  0
 17 18  1  0  0  0  0
 17 27  1  0  0  0  0
 18 19  2  0  0  0  0
 18 20  1  0  0  0  0
 20 21  1  0  0  0  0
 20 50  1  0  0  0  0
 21 22  1  0  0  0  0
 21 27  2  0  0  0  0
 22 23  2  0  0  0  0
 22 51  1  0  0  0  0
 23 24  1  0  0  0  0
 23 52  1  0  0  0  0
 24 25  1  0  0  0  0
 24 26  2  0  0  0  0
 26 27  1  0  0  0  0
 26 53  1  0  0  0  0
 28 29  1  0  0  0  0
 29 54  1  0  0  0  0
 29 55  1  0  0  0  0
 29 56  1  0  0  0  0
M  END
$$$$
