CHEMBL3968009
 OpenBabel04072215373D

 56 60  0  0  0  0  0  0  0  0999 V2000
    1.3378   -0.4171    0.0316 C   0  0  0  0  0  0  0  0  0  0  0  0
    2.3216    0.5967    0.2481 O   0  0  0  0  0  0  0  0  0  0  0  0
    3.0182    0.5418    1.4295 C   0  0  0  0  0  0  0  0  0  0  0  0
    2.6865   -0.2608    2.5093 C   0  0  0  0  0  0  0  0  0  0  0  0
    3.4669   -0.2253    3.6649 C   0  0  0  0  0  0  0  0  0  0  0  0
    3.2046   -0.9232    4.8126 O   0  0  0  0  0  0  0  0  0  0  0  0
    2.0665   -1.7761    4.7823 C   0  0  0  0  0  0  0  0  0  0  0  0
    4.6438    0.5331    3.6967 C   0  0  0  0  0  0  0  0  0  0  0  0
    5.0935    1.2343    2.5792 C   0  0  0  0  0  0  0  0  0  0  0  0
    6.3952    1.7977    2.5641 N   0  0  0  0  0  0  0  0  0  0  0  0
    6.8773    2.2716    1.2063 C   0  0  0  0  0  0  0  0  0  0  0  0
    7.3369    1.2337    0.2361 C   0  0  0  0  0  0  0  0  0  0  0  0
    7.3033    1.2426   -1.0854 N   0  0  0  0  0  0  0  0  0  0  0  0
    8.0328    0.1434   -1.4981 N   0  0  0  0  0  0  0  0  0  0  0  0
    8.4399   -0.4635   -0.4037 C   0  0  0  0  0  0  0  0  0  0  0  0
    9.1811   -1.5545   -0.2470 N   0  0  0  0  0  0  0  0  0  0  0  0
    8.0383    0.1680    0.7320 O   0  0  0  0  0  0  0  0  0  0  0  0
    7.5075    1.6359    3.4818 C   0  0  0  0  0  0  0  0  0  0  0  0
    8.1927    2.8390    3.7174 C   0  0  0  0  0  0  0  0  0  0  0  0
    9.5366    2.7785    4.0090 C   0  0  0  0  0  0  0  0  0  0  0  0
   10.2097    1.6122    4.2271 C   0  0  0  0  0  0  0  0  0  0  0  0
   11.5050    1.8214    4.2249 N   0  0  0  0  0  0  0  0  0  0  0  0
   12.2752    0.9048    4.7996 C   0  0  0  0  0  0  0  0  0  0  0  0
   11.7335   -0.1925    5.4150 C   0  0  0  0  0  0  0  0  0  0  0  0
   12.6853   -0.9184    6.3099 C   0  0  0  0  0  0  0  0  0  0  0  0
   12.8063   -0.9830    7.7302 C   0  0  0  0  0  0  0  0  0  0  0  0
   13.9098   -1.6288    8.1408 N   0  0  0  0  0  0  0  0  0  0  0  0
   14.5141   -1.9734    6.9927 N   0  0  0  0  0  0  0  0  0  0  0  0
   15.4945   -3.0377    6.9624 C   0  0  0  0  0  0  0  0  0  0  0  0
   13.9335   -1.3829    5.8998 C   0  0  0  0  0  0  0  0  0  0  0  0
   10.3877   -0.5113    5.2446 N   0  0  0  0  0  0  0  0  0  0  0  0
    9.5239    0.4074    4.5325 C   0  0  0  0  0  0  0  0  0  0  0  0
    8.1025    0.4421    3.9925 C   0  0  0  0  0  0  0  0  0  0  0  0
    4.1705    1.3409    1.5049 C   0  0  0  0  0  0  0  0  0  0  0  0
    1.0621   -0.4103   -1.0280 H   0  0  0  0  0  0  0  0  0  0  0  0
    0.4362   -0.2028    0.6151 H   0  0  0  0  0  0  0  0  0  0  0  0
    1.7162   -1.4220    0.2561 H   0  0  0  0  0  0  0  0  0  0  0  0
    1.8174   -0.9008    2.4557 H   0  0  0  0  0  0  0  0  0  0  0  0
    1.9760   -2.2510    5.7607 H   0  0  0  0  0  0  0  0  0  0  0  0
    2.1917   -2.5668    4.0336 H   0  0  0  0  0  0  0  0  0  0  0  0
    1.1498   -1.2040    4.6011 H   0  0  0  0  0  0  0  0  0  0  0  0
    5.2281    0.5452    4.6116 H   0  0  0  0  0  0  0  0  0  0  0  0
    7.7285    2.9567    1.3067 H   0  0  0  0  0  0  0  0  0  0  0  0
    6.1330    2.9154    0.7217 H   0  0  0  0  0  0  0  0  0  0  0  0
    9.6689   -1.9348   -1.0470 H   0  0  0  0  0  0  0  0  0  0  0  0
    9.5156   -1.8249    0.6674 H   0  0  0  0  0  0  0  0  0  0  0  0
    7.7514    3.8025    3.5191 H   0  0  0  0  0  0  0  0  0  0  0  0
   10.1172    3.7041    4.0281 H   0  0  0  0  0  0  0  0  0  0  0  0
   13.3293    1.1633    4.8063 H   0  0  0  0  0  0  0  0  0  0  0  0
   12.1556   -0.5794    8.4957 H   0  0  0  0  0  0  0  0  0  0  0  0
   15.7064   -3.3884    7.9764 H   0  0  0  0  0  0  0  0  0  0  0  0
   16.4115   -2.6886    6.4820 H   0  0  0  0  0  0  0  0  0  0  0  0
   15.0561   -3.8572    6.3841 H   0  0  0  0  0  0  0  0  0  0  0  0
   14.4225   -1.4189    4.9361 H   0  0  0  0  0  0  0  0  0  0  0  0
    7.5346   -0.4828    3.9894 H   0  0  0  0  0  0  0  0  0  0  0  0
    4.3203    2.0222    0.6710 H   0  0  0  0  0  0  0  0  0  0  0  0
  1  2  1  0  0  0  0
  1 35  1  0  0  0  0
  1 36  1  0  0  0  0
  1 37  1  0  0  0  0
  2  3  1  0  0  0  0
  3  4  1  0  0  0  0
  3 34  2  0  0  0  0
  4  5  2  0  0  0  0
  4 38  1  0  0  0  0
  5  6  1  0  0  0  0
  5  8  1  0  0  0  0
  6  7  1  0  0  0  0
  7 39  1  0  0  0  0
  7 40  1  0  0  0  0
  7 41  1  0  0  0  0
  8  9  2  0  0  0  0
  8 42  1  0  0  0  0
  9 10  1  0  0  0  0
  9 34  1  0  0  0  0
 10 11  1  0  0  0  0
 10 18  1  0  0  0  0
 11 12  1  0  0  0  0
 11 43  1  0  0  0  0
 11 44  1  0  0  0  0
 12 13  2  0  0  0  0
 12 17  1  0  0  0  0
 13 14  1  0  0  0  0
 14 15  2  0  0  0  0
 15 16  1  0  0  0  0
 15 17  1  0  0  0  0
 16 45  1  0  0  0  0
 16 46  1  0  0  0  0
 18 19  1  0  0  0  0
 18 33  2  0  0  0  0
 19 20  2  0  0  0  0
 19 47  1  0  0  0  0
 20 21  1  0  0  0  0
 20 48  1  0  0  0  0
 21 22  1  0  0  0  0
 21 32  2  0  0  0  0
 22 23  2  0  0  0  0
 23 24  1  0  0  0  0
 23 49  1  0  0  0  0
 24 25  1  0  0  0  0
 24 31  2  0  0  0  0
 25 26  1  0  0  0  0
 25 30  2  0  0  0  0
 26 27  2  0  0  0  0
 26 50  1  0  0  0  0
 27 28  1  0  0  0  0
 28 29  1  0  0  0  0
 28 30  1  0  0  0  0
 29 51  1  0  0  0  0
 29 52  1  0  0  0  0
 29 53  1  0  0  0  0
 30 54  1  0  0  0  0
 31 32  1  0  0  0  0
 32 33  1  0  0  0  0
 33 55  1  0  0  0  0
 34 56  1  0  0  0  0
M  END
$$$$
