CHEMBL3221259
 OpenBabel04072215363D

 55 56  0  0  0  0  0  0  0  0999 V2000
    8.3658   -5.2032   -0.2612 C   0  0  0  0  0  0  0  0  0  0  0  0
    8.2200   -4.8126    1.2069 C   0  0  0  0  0  0  0  0  0  0  0  0
    6.7420   -4.7690    1.6101 C   0  0  0  0  0  0  0  0  0  0  0  0
    6.5484   -4.4412    3.0932 C   0  0  0  0  0  0  0  0  0  0  0  0
    7.0809   -3.2116    3.4193 O   0  0  0  0  0  0  0  0  0  0  0  0
    6.3718   -2.1127    3.7993 C   0  0  0  0  0  0  0  0  0  0  0  0
    5.1754   -2.0320    3.5600 O   0  0  0  0  0  0  0  0  0  0  0  0
    7.0157   -1.0576    4.3578 N   0  0  0  0  0  0  0  0  0  0  0  0
    8.4078   -1.1179    4.6385 C   0  0  0  0  0  0  0  0  0  0  0  0
    8.9550   -2.2015    5.3590 C   0  0  0  0  0  0  0  0  0  0  0  0
   10.3330   -2.2738    5.5879 C   0  0  0  0  0  0  0  0  0  0  0  0
   11.1770   -1.2973    5.0643 C   0  0  0  0  0  0  0  0  0  0  0  0
   12.5963   -1.3925    5.2415 N   0  0  0  0  0  0  0  0  0  0  0  0
   13.4850   -0.7895    4.3153 C   0  0  0  0  0  0  0  0  0  0  0  0
   13.1136   -0.6986    3.0045 N   0  0  0  0  0  0  0  0  0  0  0  0
   13.8998   -0.1229    2.0703 C   0  0  0  0  0  0  0  0  0  0  0  0
   15.1021    0.4046    2.4208 N   0  0  0  0  0  0  0  0  0  0  0  0
   15.5252    0.3569    3.7129 C   0  0  0  0  0  0  0  0  0  0  0  0
   16.7404    0.9503    4.0587 C   0  0  0  0  0  0  0  0  0  0  0  0
   17.2155    0.9383    5.3963 C   0  0  0  0  0  0  0  0  0  0  0  0
   18.3931    1.5541    5.7082 O   0  0  0  0  0  0  0  0  0  0  0  0
   19.1892    2.2331    4.7925 C   0  0  0  0  0  0  0  0  0  0  0  0
   16.4195    0.2782    6.3885 C   0  0  0  0  0  0  0  0  0  0  0  0
   16.6901    0.1418    7.7150 O   0  0  0  0  0  0  0  0  0  0  0  0
   17.7387    0.5558    8.5034 C   0  0  0  0  0  0  0  0  0  0  0  0
   15.2029   -0.3055    6.0151 C   0  0  0  0  0  0  0  0  0  0  0  0
   14.7476   -0.2713    4.6966 C   0  0  0  0  0  0  0  0  0  0  0  0
   10.6245   -0.2021    4.3703 C   0  0  0  0  0  0  0  0  0  0  0  0
    9.2433   -0.1024    4.1801 C   0  0  0  0  0  0  0  0  0  0  0  0
    8.6200    1.2750    3.2783 Cl  0  0  0  0  0  0  0  0  0  0  0  0
   -1.2850    1.4791   -0.5112 Cl  0  0  0  0  0  0  0  0  0  0  0  0
    9.4411   -5.2329   -0.5348 H   0  0  0  0  0  0  0  0  0  0  0  0
    7.8507   -4.4623   -0.9092 H   0  0  0  0  0  0  0  0  0  0  0  0
    7.9255   -6.2086   -0.4368 H   0  0  0  0  0  0  0  0  0  0  0  0
    8.6846   -3.8151    1.3630 H   0  0  0  0  0  0  0  0  0  0  0  0
    8.7557   -5.5609    1.8305 H   0  0  0  0  0  0  0  0  0  0  0  0
    6.2885   -5.7679    1.4249 H   0  0  0  0  0  0  0  0  0  0  0  0
    6.2036   -4.0195    0.9890 H   0  0  0  0  0  0  0  0  0  0  0  0
    7.0600   -5.2058    3.7132 H   0  0  0  0  0  0  0  0  0  0  0  0
    5.4640   -4.4774    3.3235 H   0  0  0  0  0  0  0  0  0  0  0  0
    6.5089   -0.1711    4.4941 H   0  0  0  0  0  0  0  0  0  0  0  0
    8.3112   -2.9835    5.7409 H   0  0  0  0  0  0  0  0  0  0  0  0
   10.7356   -3.1144    6.1449 H   0  0  0  0  0  0  0  0  0  0  0  0
   12.9548   -1.9451    6.0313 H   0  0  0  0  0  0  0  0  0  0  0  0
   13.5706   -0.0784    1.0389 H   0  0  0  0  0  0  0  0  0  0  0  0
   17.2960    1.4350    3.2677 H   0  0  0  0  0  0  0  0  0  0  0  0
   20.0845    2.6577    5.2894 H   0  0  0  0  0  0  0  0  0  0  0  0
   18.6281    3.0771    4.3248 H   0  0  0  0  0  0  0  0  0  0  0  0
   19.5353    1.5491    3.9842 H   0  0  0  0  0  0  0  0  0  0  0  0
   17.5227    0.1936    9.5346 H   0  0  0  0  0  0  0  0  0  0  0  0
   17.7947    1.6604    8.5390 H   0  0  0  0  0  0  0  0  0  0  0  0
   18.6878    0.0902    8.1749 H   0  0  0  0  0  0  0  0  0  0  0  0
   14.6183   -0.7748    6.7889 H   0  0  0  0  0  0  0  0  0  0  0  0
   11.2456    0.5882    3.9854 H   0  0  0  0  0  0  0  0  0  0  0  0
   -0.0103    1.9755   -0.6571 H   0  0  0  0  0  0  0  0  0  0  0  0
  1  2  1  0  0  0  0
  1 32  1  0  0  0  0
  1 33  1  0  0  0  0
  1 34  1  0  0  0  0
  2  3  1  0  0  0  0
  2 35  1  0  0  0  0
  2 36  1  0  0  0  0
  3  4  1  0  0  0  0
  3 37  1  0  0  0  0
  3 38  1  0  0  0  0
  4  5  1  0  0  0  0
  4 39  1  0  0  0  0
  4 40  1  0  0  0  0
  5  6  1  0  0  0  0
  6  7  2  0  0  0  0
  6  8  1  0  0  0  0
  8  9  1  0  0  0  0
  8 41  1  0  0  0  0
  9 10  1  0  0  0  0
  9 29  2  0  0  0  0
 10 11  2  0  0  0  0
 10 42  1  0  0  0  0
 11 12  1  0  0  0  0
 11 43  1  0  0  0  0
 12 13  1  0  0  0  0
 12 28  2  0  0  0  0
 13 14  1  0  0  0  0
 13 44  1  0  0  0  0
 14 15  1  0  0  0  0
 14 27  2  0  0  0  0
 15 16  2  0  0  0  0
 16 17  1  0  0  0  0
 16 45  1  0  0  0  0
 17 18  2  0  0  0  0
 18 19  1  0  0  0  0
 18 27  1  0  0  0  0
 19 20  2  0  0  0  0
 19 46  1  0  0  0  0
 20 21  1  0  0  0  0
 20 23  1  0  0  0  0
 21 22  1  0  0  0  0
 22 47  1  0  0  0  0
 22 48  1  0  0  0  0
 22 49  1  0  0  0  0
 23 24  1  0  0  0  0
 23 26  2  0  0  0  0
 24 25  1  0  0  0  0
 25 50  1  0  0  0  0
 25 51  1  0  0  0  0
 25 52  1  0  0  0  0
 26 27  1  0  0  0  0
 26 53  1  0  0  0  0
 28 29  1  0  0  0  0
 28 54  1  0  0  0  0
 29 30  1  0  0  0  0
 31 55  1  0  0  0  0
M  END
$$$$
