CHEMBL1994638
 OpenBabel04072215363D

 46 49  0  0  0  0  0  0  0  0999 V2000
    2.9221   -5.8275   -0.8113 C   0  0  0  0  0  0  0  0  0  0  0  0
    1.4730   -6.1910   -0.9293 C   0  0  0  0  0  0  0  0  0  0  0  0
    1.1115   -7.4681   -1.3735 C   0  0  0  0  0  0  0  0  0  0  0  0
   -0.2223   -7.8143   -1.4960 C   0  0  0  0  0  0  0  0  0  0  0  0
   -1.2118   -6.8842   -1.1808 C   0  0  0  0  0  0  0  0  0  0  0  0
   -0.8878   -5.6044   -0.7075 C   0  0  0  0  0  0  0  0  0  0  0  0
   -1.8707   -4.6332   -0.3773 N   0  0  0  0  0  0  0  0  0  0  0  0
   -3.2321   -4.8624   -0.3150 C   0  0  0  0  0  0  0  0  0  0  0  0
   -3.7682   -5.9629   -0.4142 O   0  0  0  0  0  0  0  0  0  0  0  0
   -3.9634   -3.6886   -0.1670 N   0  0  0  0  0  0  0  0  0  0  0  0
   -5.3778   -3.7227   -0.0770 C   0  0  0  0  0  0  0  0  0  0  0  0
   -6.1314   -2.7666   -0.7515 C   0  0  0  0  0  0  0  0  0  0  0  0
   -7.5357   -2.8063   -0.6954 C   0  0  0  0  0  0  0  0  0  0  0  0
   -8.2306   -3.7858    0.0466 C   0  0  0  0  0  0  0  0  0  0  0  0
   -9.7119   -3.7804    0.1193 C   0  0  0  0  0  0  0  0  0  0  0  0
  -10.4755   -3.4929   -1.0457 C   0  0  0  0  0  0  0  0  0  0  0  0
  -11.8689   -3.4450   -1.0463 C   0  0  0  0  0  0  0  0  0  0  0  0
  -12.5842   -3.7233    0.1096 C   0  0  0  0  0  0  0  0  0  0  0  0
  -11.8478   -4.0168    1.2592 C   0  0  0  0  0  0  0  0  0  0  0  0
  -12.2864   -4.3336    2.5150 N   0  0  0  0  0  0  0  0  0  0  0  0
  -11.3167   -4.4853    3.4154 N   0  0  0  0  0  0  0  0  0  0  0  0
  -10.2034   -4.2637    2.7222 C   0  0  0  0  0  0  0  0  0  0  0  0
   -9.0207   -4.2722    3.3577 N   0  0  0  0  0  0  0  0  0  0  0  0
  -10.4482   -4.0264    1.3235 C   0  0  0  0  0  0  0  0  0  0  0  0
   -7.4364   -4.7606    0.6613 C   0  0  0  0  0  0  0  0  0  0  0  0
   -8.0016   -5.7769    1.3305 F   0  0  0  0  0  0  0  0  0  0  0  0
   -6.0423   -4.7132    0.6434 C   0  0  0  0  0  0  0  0  0  0  0  0
    0.4653   -5.2638   -0.5927 C   0  0  0  0  0  0  0  0  0  0  0  0
    3.5678   -6.6552   -1.1228 H   0  0  0  0  0  0  0  0  0  0  0  0
    3.1696   -5.5832    0.2247 H   0  0  0  0  0  0  0  0  0  0  0  0
    3.1523   -4.9695   -1.4552 H   0  0  0  0  0  0  0  0  0  0  0  0
    1.8733   -8.2027   -1.6319 H   0  0  0  0  0  0  0  0  0  0  0  0
   -0.5083   -8.8035   -1.8437 H   0  0  0  0  0  0  0  0  0  0  0  0
   -2.2393   -7.2069   -1.3076 H   0  0  0  0  0  0  0  0  0  0  0  0
   -1.5395   -3.7475   -0.0217 H   0  0  0  0  0  0  0  0  0  0  0  0
   -3.5522   -2.8695   -0.5910 H   0  0  0  0  0  0  0  0  0  0  0  0
   -5.6514   -2.0122   -1.3688 H   0  0  0  0  0  0  0  0  0  0  0  0
   -8.0865   -2.0536   -1.2567 H   0  0  0  0  0  0  0  0  0  0  0  0
   -9.9692   -3.2995   -1.9906 H   0  0  0  0  0  0  0  0  0  0  0  0
  -12.4016   -3.1953   -1.9612 H   0  0  0  0  0  0  0  0  0  0  0  0
  -13.6694   -3.7007    0.1172 H   0  0  0  0  0  0  0  0  0  0  0  0
  -13.2450   -4.4420    2.8234 H   0  0  0  0  0  0  0  0  0  0  0  0
   -9.0436   -4.7339    4.2607 H   0  0  0  0  0  0  0  0  0  0  0  0
   -8.1885   -4.5178    2.8422 H   0  0  0  0  0  0  0  0  0  0  0  0
   -5.4977   -5.4709    1.2003 H   0  0  0  0  0  0  0  0  0  0  0  0
    0.7585   -4.2767   -0.2473 H   0  0  0  0  0  0  0  0  0  0  0  0
  1  2  1  0  0  0  0
  1 29  1  0  0  0  0
  1 30  1  0  0  0  0
  1 31  1  0  0  0  0
  2  3  1  0  0  0  0
  2 28  2  0  0  0  0
  3  4  2  0  0  0  0
  3 32  1  0  0  0  0
  4  5  1  0  0  0  0
  4 33  1  0  0  0  0
  5  6  2  0  0  0  0
  5 34  1  0  0  0  0
  6  7  1  0  0  0  0
  6 28  1  0  0  0  0
  7  8  1  0  0  0  0
  7 35  1  0  0  0  0
  8  9  2  0  0  0  0
  8 10  1  0  0  0  0
 10 11  1  0  0  0  0
 10 36  1  0  0  0  0
 11 12  1  0  0  0  0
 11 27  2  0  0  0  0
 12 13  2  0  0  0  0
 12 37  1  0  0  0  0
 13 14  1  0  0  0  0
 13 38  1  0  0  0  0
 14 15  1  0  0  0  0
 14 25  2  0  0  0  0
 15 16  1  0  0  0  0
 15 24  2  0  0  0  0
 16 17  2  0  0  0  0
 16 39  1  0  0  0  0
 17 18  1  0  0  0  0
 17 40  1  0  0  0  0
 18 19  2  0  0  0  0
 18 41  1  0  0  0  0
 19 20  1  0  0  0  0
 19 24  1  0  0  0  0
 20 21  1  0  0  0  0
 20 42  1  0  0  0  0
 21 22  2  0  0  0  0
 22 23  1  0  0  0  0
 22 24  1  0  0  0  0
 23 43  1  0  0  0  0
 23 44  1  0  0  0  0
 25 26  1  0  0  0  0
 25 27  1  0  0  0  0
 27 45  1  0  0  0  0
 28 46  1  0  0  0  0
M  END
$$$$
