CHEMBL3927219
 OpenBabel04072215373D

 63 66  0  0  0  0  0  0  0  0999 V2000
    6.7685   -0.2692    2.7158 H   0  0  0  0  0  0  0  0  0  0  0  0
    6.0705   -0.4122    1.8667 C   0  0  0  0  0  0  0  0  0  0  0  0
    5.8737   -1.5002    1.7510 H   0  0  0  0  0  0  0  0  0  0  0  0
    5.1175    0.1074    2.1213 H   0  0  0  0  0  0  0  0  0  0  0  0
    6.6271    0.1029    0.7020 O   0  0  0  0  0  0  0  0  0  0  0  0
    6.0127    0.1422   -0.5158 C   0  0  0  0  0  0  0  0  0  0  0  0
    4.6977   -0.3353   -0.6707 C   0  0  0  0  0  0  0  0  0  0  0  0
    4.0438   -0.2438   -1.9010 C   0  0  0  0  0  0  0  0  0  0  0  0
    2.7720   -0.6949   -2.0838 O   0  0  0  0  0  0  0  0  0  0  0  0
    1.9924   -1.3240   -1.1306 C   0  0  0  0  0  0  0  0  0  0  0  0
    2.4962   -2.2490   -0.7757 H   0  0  0  0  0  0  0  0  0  0  0  0
    1.8015   -0.6443   -0.2722 H   0  0  0  0  0  0  0  0  0  0  0  0
    1.0178   -1.6078   -1.5784 H   0  0  0  0  0  0  0  0  0  0  0  0
    4.7075    0.3433   -2.9798 C   0  0  0  0  0  0  0  0  0  0  0  0
    6.0418    0.8239   -2.8874 C   0  0  0  0  0  0  0  0  0  0  0  0
    6.6236    1.5534   -4.0045 N   0  0  0  0  0  0  0  0  0  0  0  0
    5.6806    2.3868   -4.8253 C   0  0  0  0  0  0  0  0  0  0  0  0
    4.7901    3.4684   -4.1070 C   0  0  0  0  0  0  0  0  0  0  0  0
    5.3885    4.7255   -3.4118 C   0  0  0  0  0  0  0  0  0  0  0  0
    4.2711    5.5974   -2.9652 N   0  0  0  0  0  0  0  0  0  0  0  0
    4.7088    6.8122   -2.2504 C   0  0  0  0  0  0  0  0  0  0  0  0
    3.5095    7.6871   -1.7870 C   0  0  0  0  0  0  0  0  0  0  0  0
    2.2954    7.1709   -2.2090 F   0  0  0  0  0  0  0  0  0  0  0  0
    3.4894    7.7701   -0.4043 F   0  0  0  0  0  0  0  0  0  0  0  0
    3.6315    8.9714   -2.2908 F   0  0  0  0  0  0  0  0  0  0  0  0
    8.0089    1.5269   -4.5221 C   0  0  0  0  0  0  0  0  0  0  0  0
    8.4509    2.7955   -4.9015 C   0  0  0  0  0  0  0  0  0  0  0  0
    9.5169    2.9775   -5.7082 C   0  0  0  0  0  0  0  0  0  0  0  0
   10.2650    1.9332   -6.1400 C   0  0  0  0  0  0  0  0  0  0  0  0
   11.1776    2.2447   -7.0553 N   0  0  0  0  0  0  0  0  0  0  0  0
   12.0375    1.3689   -7.5300 C   0  0  0  0  0  0  0  0  0  0  0  0
   12.1128    0.0821   -6.9980 C   0  0  0  0  0  0  0  0  0  0  0  0
   13.4764   -0.5810   -7.3360 C   0  0  0  0  0  0  0  0  0  0  0  0
   14.5194    0.1216   -7.9984 C   0  0  0  0  0  0  0  0  0  0  0  0
   15.6303   -0.5891   -8.0006 N   0  0  0  0  0  0  0  0  0  0  0  0
   15.4095   -1.7238   -7.3916 N   0  0  0  0  0  0  0  0  0  0  0  0
   16.5017   -2.6535   -7.1509 C   0  0  0  0  0  0  0  0  0  0  0  0
   14.0957   -1.7945   -7.0015 C   0  0  0  0  0  0  0  0  0  0  0  0
   11.0721   -0.3217   -6.1200 N   0  0  0  0  0  0  0  0  0  0  0  0
   10.0857    0.6075   -5.6939 C   0  0  0  0  0  0  0  0  0  0  0  0
    8.8833    0.3785   -4.8557 C   0  0  0  0  0  0  0  0  0  0  0  0
    6.6891    0.7041   -1.6330 C   0  0  0  0  0  0  0  0  0  0  0  0
    4.1716   -0.7644    0.1702 H   0  0  0  0  0  0  0  0  0  0  0  0
    4.1479    0.4192   -3.8979 H   0  0  0  0  0  0  0  0  0  0  0  0
    4.9839    1.7091   -5.3498 H   0  0  0  0  0  0  0  0  0  0  0  0
    6.1773    2.8919   -5.6788 H   0  0  0  0  0  0  0  0  0  0  0  0
    4.1241    2.9643   -3.3820 H   0  0  0  0  0  0  0  0  0  0  0  0
    4.1429    3.8802   -4.9152 H   0  0  0  0  0  0  0  0  0  0  0  0
    6.0256    5.2944   -4.1266 H   0  0  0  0  0  0  0  0  0  0  0  0
    6.0059    4.4225   -2.5398 H   0  0  0  0  0  0  0  0  0  0  0  0
    3.6468    5.0519   -2.3272 H   0  0  0  0  0  0  0  0  0  0  0  0
    5.3601    7.4236   -2.9118 H   0  0  0  0  0  0  0  0  0  0  0  0
    5.3105    6.5320   -1.3579 H   0  0  0  0  0  0  0  0  0  0  0  0
    7.9027    3.6790   -4.6402 H   0  0  0  0  0  0  0  0  0  0  0  0
    9.7513    3.9751   -6.0485 H   0  0  0  0  0  0  0  0  0  0  0  0
   12.6981    1.7792   -8.2566 H   0  0  0  0  0  0  0  0  0  0  0  0
   14.5529    1.1201   -8.3993 H   0  0  0  0  0  0  0  0  0  0  0  0
   17.4663   -2.1935   -7.4826 H   0  0  0  0  0  0  0  0  0  0  0  0
   16.3632   -3.6031   -7.7013 H   0  0  0  0  0  0  0  0  0  0  0  0
   16.5934   -2.8259   -6.0603 H   0  0  0  0  0  0  0  0  0  0  0  0
   13.6809   -2.6294   -6.4634 H   0  0  0  0  0  0  0  0  0  0  0  0
    8.6068   -0.6288   -4.5581 H   0  0  0  0  0  0  0  0  0  0  0  0
    7.6842    1.1051   -1.4975 H   0  0  0  0  0  0  0  0  0  0  0  0
  1  2  1  0  0  0  0
  2  3  1  0  0  0  0
  2  4  1  0  0  0  0
  2  5  1  0  0  0  0
  5  6  1  0  0  0  0
  6  7  1  0  0  0  0
  6 42  2  0  0  0  0
  7  8  2  0  0  0  0
  7 43  1  0  0  0  0
  8  9  1  0  0  0  0
  8 14  1  0  0  0  0
  9 10  1  0  0  0  0
 10 11  1  0  0  0  0
 10 12  1  0  0  0  0
 10 13  1  0  0  0  0
 14 15  2  0  0  0  0
 14 44  1  0  0  0  0
 15 16  1  0  0  0  0
 15 42  1  0  0  0  0
 16 17  1  0  0  0  0
 16 26  1  0  0  0  0
 17 18  1  0  0  0  0
 17 45  1  0  0  0  0
 17 46  1  0  0  0  0
 18 19  1  0  0  0  0
 18 47  1  0  0  0  0
 18 48  1  0  0  0  0
 19 20  1  0  0  0  0
 19 49  1  0  0  0  0
 19 50  1  0  0  0  0
 20 21  1  0  0  0  0
 20 51  1  0  0  0  0
 21 22  1  0  0  0  0
 21 52  1  0  0  0  0
 21 53  1  0  0  0  0
 22 23  1  0  0  0  0
 22 24  1  0  0  0  0
 22 25  1  0  0  0  0
 26 27  1  0  0  0  0
 26 41  2  0  0  0  0
 27 28  2  0  0  0  0
 27 54  1  0  0  0  0
 28 29  1  0  0  0  0
 28 55  1  0  0  0  0
 29 30  1  0  0  0  0
 29 40  2  0  0  0  0
 30 31  2  0  0  0  0
 31 32  1  0  0  0  0
 31 56  1  0  0  0  0
 32 33  1  0  0  0  0
 32 39  2  0  0  0  0
 33 34  1  0  0  0  0
 33 38  2  0  0  0  0
 34 35  2  0  0  0  0
 34 57  1  0  0  0  0
 35 36  1  0  0  0  0
 36 37  1  0  0  0  0
 36 38  1  0  0  0  0
 37 58  1  0  0  0  0
 37 59  1  0  0  0  0
 37 60  1  0  0  0  0
 38 61  1  0  0  0  0
 39 40  1  0  0  0  0
 40 41  1  0  0  0  0
 41 62  1  0  0  0  0
 42 63  1  0  0  0  0
M  ISO  6   1   2   3   2   4   2  11   2  12   2  13   2
M  END
$$$$
