CHEMBL1683649
 OpenBabel04072215363D

 53 55  0  0  1  0  0  0  0  0999 V2000
    3.8108   -2.7668    2.7978 C   0  0  0  0  0  0  0  0  0  0  0  0
    4.3398   -2.6264    1.3724 C   0  0  0  0  0  0  0  0  0  0  0  0
    4.8473   -1.4413    0.9436 C   0  0  0  0  0  0  0  0  0  0  0  0
    3.8136   -0.3063    0.7217 C   0  0  0  0  0  0  0  0  0  0  0  0
    2.4255   -0.9558    0.6492 C   0  0  2  0  0  0  0  0  0  0  0  0
    2.5043   -2.1816   -0.2955 C   0  0  1  0  0  0  0  0  0  0  0  0
    3.4181   -3.2821    0.3453 C   0  0  0  0  0  0  0  0  0  0  0  0
    1.1354   -2.7412   -0.5328 C   0  0  0  0  0  0  0  0  0  0  0  0
    0.9176   -3.7180   -1.5021 C   0  0  0  0  0  0  0  0  0  0  0  0
    1.8467   -3.9722   -2.4701 O   0  0  0  0  0  0  0  0  0  0  0  0
   -0.3191   -4.3158   -1.6305 C   0  0  0  0  0  0  0  0  0  0  0  0
   -1.3799   -3.8471   -0.8367 C   0  0  0  0  0  0  0  0  0  0  0  0
   -2.7531   -3.8778   -1.4125 C   0  0  0  0  0  0  0  0  0  0  0  0
   -3.4393   -5.2029   -1.6480 C   0  0  0  0  0  0  0  0  0  0  0  0
   -4.5818   -4.9118   -2.6231 C   0  0  0  0  0  0  0  0  0  0  0  0
   -5.4908   -6.1027   -2.8537 C   0  0  0  0  0  0  0  0  0  0  0  0
   -6.6355   -5.7684   -3.7967 C   0  0  0  0  0  0  0  0  0  0  0  0
   -6.5665   -4.5044   -4.2705 F   0  0  0  0  0  0  0  0  0  0  0  0
   -6.6335   -6.6023   -4.8578 F   0  0  0  0  0  0  0  0  0  0  0  0
   -7.8258   -5.9018   -3.1708 F   0  0  0  0  0  0  0  0  0  0  0  0
   -1.1539   -2.9187    0.1829 C   0  0  0  0  0  0  0  0  0  0  0  0
    0.0665   -2.2849    0.2450 C   0  0  0  0  0  0  0  0  0  0  0  0
    0.0893   -1.1221    0.9677 O   0  0  0  0  0  0  0  0  0  0  0  0
    1.1197   -0.1695    0.5231 C   0  0  0  0  0  0  0  0  0  0  0  0
    1.1122    0.9859    1.5358 C   0  0  0  0  0  0  0  0  0  0  0  0
    0.7058    0.3921   -0.8466 C   0  0  0  0  0  0  0  0  0  0  0  0
    3.9346   -1.8355    3.3641 H   0  0  0  0  0  0  0  0  0  0  0  0
    2.7383   -3.0035    2.8191 H   0  0  0  0  0  0  0  0  0  0  0  0
    4.3217   -3.5708    3.3313 H   0  0  0  0  0  0  0  0  0  0  0  0
    5.4238   -1.5187    0.0061 H   0  0  0  0  0  0  0  0  0  0  0  0
    4.0445    0.2245   -0.2086 H   0  0  0  0  0  0  0  0  0  0  0  0
    3.8967    0.4049    1.5513 H   0  0  0  0  0  0  0  0  0  0  0  0
    2.2708   -1.3548    1.6580 H   0  0  0  0  0  0  0  0  0  0  0  0
    2.9260   -1.8556   -1.2574 H   0  0  0  0  0  0  0  0  0  0  0  0
    4.0037   -3.7990   -0.4263 H   0  0  0  0  0  0  0  0  0  0  0  0
    2.8177   -4.0550    0.8300 H   0  0  0  0  0  0  0  0  0  0  0  0
    2.0110   -3.0947   -2.8877 H   0  0  0  0  0  0  0  0  0  0  0  0
   -0.4915   -5.0234   -2.4349 H   0  0  0  0  0  0  0  0  0  0  0  0
   -3.4254   -3.2448   -0.8022 H   0  0  0  0  0  0  0  0  0  0  0  0
   -2.6547   -3.3370   -2.3699 H   0  0  0  0  0  0  0  0  0  0  0  0
   -3.8310   -5.6234   -0.7084 H   0  0  0  0  0  0  0  0  0  0  0  0
   -2.7619   -5.9454   -2.0853 H   0  0  0  0  0  0  0  0  0  0  0  0
   -4.1581   -4.5861   -3.5813 H   0  0  0  0  0  0  0  0  0  0  0  0
   -5.1787   -4.0699   -2.2393 H   0  0  0  0  0  0  0  0  0  0  0  0
   -5.8935   -6.4439   -1.8921 H   0  0  0  0  0  0  0  0  0  0  0  0
   -4.9026   -6.9312   -3.2659 H   0  0  0  0  0  0  0  0  0  0  0  0
   -1.9741   -2.5492    0.7949 H   0  0  0  0  0  0  0  0  0  0  0  0
    1.6001    0.6972    2.4750 H   0  0  0  0  0  0  0  0  0  0  0  0
    1.6402    1.8651    1.1495 H   0  0  0  0  0  0  0  0  0  0  0  0
    0.0894    1.2768    1.8027 H   0  0  0  0  0  0  0  0  0  0  0  0
   -0.3630    0.6560   -0.8262 H   0  0  0  0  0  0  0  0  0  0  0  0
    0.8117   -0.3319   -1.6593 H   0  0  0  0  0  0  0  0  0  0  0  0
    1.2712    1.2853   -1.1211 H   0  0  0  0  0  0  0  0  0  0  0  0
  1  2  1  0  0  0  0
  1 27  1  0  0  0  0
  1 28  1  0  0  0  0
  1 29  1  0  0  0  0
  2  3  2  3  0  0  0
  2  7  1  0  0  0  0
  3  4  1  0  0  0  0
  3 30  1  0  0  0  0
  4  5  1  0  0  0  0
  4 31  1  0  0  0  0
  4 32  1  0  0  0  0
  5  6  1  0  0  0  0
  5 24  1  0  0  0  0
  5 33  1  1  0  0  0
  6  7  1  0  0  0  0
  6  8  1  0  0  0  0
  6 34  1  6  0  0  0
  7 35  1  0  0  0  0
  7 36  1  0  0  0  0
  8  9  1  0  0  0  0
  8 22  2  0  0  0  0
  9 10  1  0  0  0  0
  9 11  2  0  0  0  0
 10 37  1  0  0  0  0
 11 12  1  0  0  0  0
 11 38  1  0  0  0  0
 12 13  1  0  0  0  0
 12 21  2  0  0  0  0
 13 14  1  0  0  0  0
 13 39  1  0  0  0  0
 13 40  1  0  0  0  0
 14 15  1  0  0  0  0
 14 41  1  0  0  0  0
 14 42  1  0  0  0  0
 15 16  1  0  0  0  0
 15 43  1  0  0  0  0
 15 44  1  0  0  0  0
 16 17  1  0  0  0  0
 16 45  1  0  0  0  0
 16 46  1  0  0  0  0
 17 18  1  0  0  0  0
 17 19  1  0  0  0  0
 17 20  1  0  0  0  0
 21 22  1  0  0  0  0
 21 47  1  0  0  0  0
 22 23  1  0  0  0  0
 23 24  1  0  0  0  0
 24 25  1  0  0  0  0
 24 26  1  0  0  0  0
 25 48  1  0  0  0  0
 25 49  1  0  0  0  0
 25 50  1  0  0  0  0
 26 51  1  0  0  0  0
 26 52  1  0  0  0  0
 26 53  1  0  0  0  0
M  END
$$$$
