CHEMBL4533369
 OpenBabel04072215383D

 64 68  0  0  0  0  0  0  0  0999 V2000
    1.5364    2.4175   -2.5755 C   0  0  0  0  0  0  0  0  0  0  0  0
    0.3194    1.7403   -2.0172 C   0  0  0  0  0  0  0  0  0  0  0  0
    0.1692    1.5466   -0.6404 C   0  0  0  0  0  0  0  0  0  0  0  0
   -0.9954    0.9738   -0.1255 C   0  0  0  0  0  0  0  0  0  0  0  0
   -2.0391    0.5927   -0.9809 C   0  0  0  0  0  0  0  0  0  0  0  0
   -3.3161    0.0195   -0.4324 C   0  0  0  0  0  0  0  0  0  0  0  0
   -4.0712    0.9173    0.4302 N   0  0  0  0  0  0  0  0  0  0  0  0
   -4.2181    0.3609    1.7146 C   0  0  0  0  0  0  0  0  0  0  0  0
   -3.3039    0.1610    2.4693 O   0  0  0  0  0  0  0  0  0  0  0  0
   -5.7314    0.0926    1.8782 C   0  0  0  0  0  0  0  0  0  0  0  0
   -6.4246   -0.7364    2.5975 N   0  0  0  0  0  0  0  0  0  0  0  0
   -5.9131   -1.6170    3.5548 C   0  0  0  0  0  0  0  0  0  0  0  0
   -4.7910   -1.3554    4.3111 C   0  0  0  0  0  0  0  0  0  0  0  0
   -4.3591   -2.2181    5.3084 C   0  0  0  0  0  0  0  0  0  0  0  0
   -5.0754   -3.3518    5.6656 C   0  0  0  0  0  0  0  0  0  0  0  0
   -4.6451   -4.2022    6.7245 N   0  0  0  0  0  0  0  0  0  0  0  0
   -3.5070   -3.9665    7.4865 C   0  0  0  0  0  0  0  0  0  0  0  0
   -2.7359   -3.0357    7.3473 O   0  0  0  0  0  0  0  0  0  0  0  0
   -3.2897   -4.9328    8.4685 N   0  0  0  0  0  0  0  0  0  0  0  0
   -2.1106   -4.7901    9.2591 C   0  0  0  0  0  0  0  0  0  0  0  0
   -1.9300   -3.6422   10.0480 C   0  0  0  0  0  0  0  0  0  0  0  0
   -0.7484   -3.4364   10.7601 C   0  0  0  0  0  0  0  0  0  0  0  0
    0.2591   -4.3986   10.6800 C   0  0  0  0  0  0  0  0  0  0  0  0
    1.7474   -4.1737   11.6012 S   0  0  0  0  0  0  0  0  0  0  0  0
    1.3227   -4.9792   13.0150 N   0  0  0  0  0  0  0  0  0  0  0  0
    2.8055   -4.9546   10.9894 O   0  0  0  0  0  0  0  0  0  0  0  0
    1.9083   -2.7897   11.9574 O   0  0  0  0  0  0  0  0  0  0  0  0
    0.0905   -5.5505    9.9066 C   0  0  0  0  0  0  0  0  0  0  0  0
   -1.1060   -5.7581    9.2089 C   0  0  0  0  0  0  0  0  0  0  0  0
   -6.2536   -3.6108    4.9570 C   0  0  0  0  0  0  0  0  0  0  0  0
   -6.6507   -2.7577    3.8990 C   0  0  0  0  0  0  0  0  0  0  0  0
   -6.3574    0.9308    0.8686 C   0  0  0  0  0  0  0  0  0  0  0  0
   -7.6842    1.2748    0.7267 C   0  0  0  0  0  0  0  0  0  0  0  0
   -7.9889    2.2085   -0.2575 C   0  0  0  0  0  0  0  0  0  0  0  0
   -6.9702    2.7404   -1.0767 C   0  0  0  0  0  0  0  0  0  0  0  0
   -5.6357    2.3127   -0.9570 C   0  0  0  0  0  0  0  0  0  0  0  0
   -5.3432    1.3848    0.0235 C   0  0  0  0  0  0  0  0  0  0  0  0
   -1.8583    0.7282   -2.3644 C   0  0  0  0  0  0  0  0  0  0  0  0
   -0.6941    1.3038   -2.8765 C   0  0  0  0  0  0  0  0  0  0  0  0
    2.2430    2.6900   -1.7847 H   0  0  0  0  0  0  0  0  0  0  0  0
    1.2472    3.3374   -3.0949 H   0  0  0  0  0  0  0  0  0  0  0  0
    2.0544    1.7567   -3.2775 H   0  0  0  0  0  0  0  0  0  0  0  0
    0.9524    1.8554    0.0478 H   0  0  0  0  0  0  0  0  0  0  0  0
   -1.0892    0.8326    0.9506 H   0  0  0  0  0  0  0  0  0  0  0  0
   -3.0590   -0.8846    0.1427 H   0  0  0  0  0  0  0  0  0  0  0  0
   -3.9644   -0.3401   -1.2397 H   0  0  0  0  0  0  0  0  0  0  0  0
   -4.2170   -0.4503    4.2109 H   0  0  0  0  0  0  0  0  0  0  0  0
   -3.4487   -1.8985    5.7975 H   0  0  0  0  0  0  0  0  0  0  0  0
   -5.2335   -4.9904    6.9514 H   0  0  0  0  0  0  0  0  0  0  0  0
   -3.5142   -5.8742    8.1720 H   0  0  0  0  0  0  0  0  0  0  0  0
   -2.7136   -2.8898   10.1127 H   0  0  0  0  0  0  0  0  0  0  0  0
   -0.6244   -2.5449   11.3599 H   0  0  0  0  0  0  0  0  0  0  0  0
    1.9140   -5.7924   13.1660 H   0  0  0  0  0  0  0  0  0  0  0  0
    1.2575   -4.3255   13.7931 H   0  0  0  0  0  0  0  0  0  0  0  0
    0.8923   -6.2875    9.8400 H   0  0  0  0  0  0  0  0  0  0  0  0
   -1.2022   -6.6401    8.5826 H   0  0  0  0  0  0  0  0  0  0  0  0
   -6.8951   -4.4479    5.2137 H   0  0  0  0  0  0  0  0  0  0  0  0
   -7.5746   -2.9638    3.3624 H   0  0  0  0  0  0  0  0  0  0  0  0
   -8.4383    0.8683    1.3913 H   0  0  0  0  0  0  0  0  0  0  0  0
   -9.0149    2.5537   -0.3694 H   0  0  0  0  0  0  0  0  0  0  0  0
   -7.2272    3.5210   -1.7908 H   0  0  0  0  0  0  0  0  0  0  0  0
   -4.8567    2.7718   -1.5583 H   0  0  0  0  0  0  0  0  0  0  0  0
   -2.6271    0.3924   -3.0575 H   0  0  0  0  0  0  0  0  0  0  0  0
   -0.5879    1.4245   -3.9521 H   0  0  0  0  0  0  0  0  0  0  0  0
  1  2  1  0  0  0  0
  1 40  1  0  0  0  0
  1 41  1  0  0  0  0
  1 42  1  0  0  0  0
  2  3  1  0  0  0  0
  2 39  2  0  0  0  0
  3  4  2  0  0  0  0
  3 43  1  0  0  0  0
  4  5  1  0  0  0  0
  4 44  1  0  0  0  0
  5  6  1  0  0  0  0
  5 38  2  0  0  0  0
  6  7  1  0  0  0  0
  6 45  1  0  0  0  0
  6 46  1  0  0  0  0
  7  8  1  0  0  0  0
  7 37  1  0  0  0  0
  8  9  2  0  0  0  0
  8 10  1  0  0  0  0
 10 11  2  0  0  0  0
 10 32  1  0  0  0  0
 11 12  1  0  0  0  0
 12 13  1  0  0  0  0
 12 31  2  0  0  0  0
 13 14  2  0  0  0  0
 13 47  1  0  0  0  0
 14 15  1  0  0  0  0
 14 48  1  0  0  0  0
 15 16  1  0  0  0  0
 15 30  2  0  0  0  0
 16 17  1  0  0  0  0
 16 49  1  0  0  0  0
 17 18  2  0  0  0  0
 17 19  1  0  0  0  0
 19 20  1  0  0  0  0
 19 50  1  0  0  0  0
 20 21  1  0  0  0  0
 20 29  2  0  0  0  0
 21 22  2  0  0  0  0
 21 51  1  0  0  0  0
 22 23  1  0  0  0  0
 22 52  1  0  0  0  0
 23 24  1  0  0  0  0
 23 28  2  0  0  0  0
 24 25  1  0  0  0  0
 24 26  2  0  0  0  0
 24 27  2  0  0  0  0
 25 53  1  0  0  0  0
 25 54  1  0  0  0  0
 28 29  1  0  0  0  0
 28 55  1  0  0  0  0
 29 56  1  0  0  0  0
 30 31  1  0  0  0  0
 30 57  1  0  0  0  0
 31 58  1  0  0  0  0
 32 33  1  0  0  0  0
 32 37  2  0  0  0  0
 33 34  2  0  0  0  0
 33 59  1  0  0  0  0
 34 35  1  0  0  0  0
 34 60  1  0  0  0  0
 35 36  2  0  0  0  0
 35 61  1  0  0  0  0
 36 37  1  0  0  0  0
 36 62  1  0  0  0  0
 38 39  1  0  0  0  0
 38 63  1  0  0  0  0
 39 64  1  0  0  0  0
M  END
$$$$
