CHEMBL231570
 OpenBabel04072215363D

 59 63  0  0  0  0  0  0  0  0999 V2000
    1.8870    2.8938    3.7616 C   0  0  0  0  0  0  0  0  0  0  0  0
    3.2403    2.6546    3.3447 N   0  0  0  0  0  0  0  0  0  0  0  0
    3.5478    2.2483    2.0644 C   0  0  0  0  0  0  0  0  0  0  0  0
    2.7132    2.0909    1.1787 O   0  0  0  0  0  0  0  0  0  0  0  0
    5.0114    2.0332    1.8150 C   0  0  0  0  0  0  0  0  0  0  0  0
    5.4341    1.7286    0.5308 C   0  0  0  0  0  0  0  0  0  0  0  0
    6.8090    1.6979    0.2900 C   0  0  0  0  0  0  0  0  0  0  0  0
    7.3737    1.5024   -0.9483 O   0  0  0  0  0  0  0  0  0  0  0  0
    6.7191    1.9681   -2.0712 C   0  0  0  0  0  0  0  0  0  0  0  0
    5.9804    3.1636   -2.1067 C   0  0  0  0  0  0  0  0  0  0  0  0
    5.2579    3.5486   -3.2471 C   0  0  0  0  0  0  0  0  0  0  0  0
    5.3781    2.7085   -4.3459 C   0  0  0  0  0  0  0  0  0  0  0  0
    4.7623    2.8154   -5.5628 O   0  0  0  0  0  0  0  0  0  0  0  0
    5.1959    1.7146   -6.2509 C   0  0  0  0  0  0  0  0  0  0  0  0
    4.6230    1.5003   -7.4592 N   0  0  0  0  0  0  0  0  0  0  0  0
    4.3380    0.2163   -7.9907 C   0  0  0  0  0  0  0  0  0  0  0  0
    4.7206   -0.9702   -7.3517 C   0  0  0  0  0  0  0  0  0  0  0  0
    4.2526   -2.2055   -7.7903 C   0  0  0  0  0  0  0  0  0  0  0  0
    3.4684   -2.2897   -8.9347 C   0  0  0  0  0  0  0  0  0  0  0  0
    2.6978   -3.8068   -9.2309 Cl  0  0  0  0  0  0  0  0  0  0  0  0
    3.2701   -1.1596   -9.7427 C   0  0  0  0  0  0  0  0  0  0  0  0
    2.6069   -1.2506  -11.0993 C   0  0  0  0  0  0  0  0  0  0  0  0
    3.4517   -1.5063  -12.2675 N   0  0  0  0  0  0  0  0  0  0  0  0
    4.2590   -2.7322  -12.3001 C   0  0  0  0  0  0  0  0  0  0  0  0
    5.7465   -2.5712  -11.9219 C   0  0  0  0  0  0  0  0  0  0  0  0
    6.3602   -1.4455  -12.5636 O   0  0  0  0  0  0  0  0  0  0  0  0
    5.6255   -0.2485  -12.2894 C   0  0  0  0  0  0  0  0  0  0  0  0
    4.1919   -0.3679  -12.8169 C   0  0  0  0  0  0  0  0  0  0  0  0
    3.6845    0.0984   -9.2312 C   0  0  0  0  0  0  0  0  0  0  0  0
    6.0789    0.9813   -5.5972 N   0  0  0  0  0  0  0  0  0  0  0  0
    6.1654    1.5702   -4.3701 C   0  0  0  0  0  0  0  0  0  0  0  0
    6.8620    1.1817   -3.2206 C   0  0  0  0  0  0  0  0  0  0  0  0
    7.6927    1.8430    1.3560 C   0  0  0  0  0  0  0  0  0  0  0  0
    7.1713    2.1014    2.6107 C   0  0  0  0  0  0  0  0  0  0  0  0
    5.8467    2.2290    2.8683 N   0  0  0  0  0  0  0  0  0  0  0  0
    1.8878    3.1932    4.8117 H   0  0  0  0  0  0  0  0  0  0  0  0
    1.3062    1.9764    3.6327 H   0  0  0  0  0  0  0  0  0  0  0  0
    1.4508    3.6851    3.1456 H   0  0  0  0  0  0  0  0  0  0  0  0
    4.0182    2.7631    3.9901 H   0  0  0  0  0  0  0  0  0  0  0  0
    4.7061    1.5684   -0.2547 H   0  0  0  0  0  0  0  0  0  0  0  0
    5.9289    3.8030   -1.2275 H   0  0  0  0  0  0  0  0  0  0  0  0
    4.6309    4.4307   -3.2598 H   0  0  0  0  0  0  0  0  0  0  0  0
    3.9169    2.1821   -7.7125 H   0  0  0  0  0  0  0  0  0  0  0  0
    5.3300   -0.9697   -6.4555 H   0  0  0  0  0  0  0  0  0  0  0  0
    4.4793   -3.0913   -7.2037 H   0  0  0  0  0  0  0  0  0  0  0  0
    2.0394   -0.3261  -11.2695 H   0  0  0  0  0  0  0  0  0  0  0  0
    1.8189   -2.0130  -11.0739 H   0  0  0  0  0  0  0  0  0  0  0  0
    4.2331   -3.0843  -13.3394 H   0  0  0  0  0  0  0  0  0  0  0  0
    3.8093   -3.5443  -11.7228 H   0  0  0  0  0  0  0  0  0  0  0  0
    6.2976   -3.4585  -12.2535 H   0  0  0  0  0  0  0  0  0  0  0  0
    5.8866   -2.4840  -10.8398 H   0  0  0  0  0  0  0  0  0  0  0  0
    6.1344    0.5743  -12.8019 H   0  0  0  0  0  0  0  0  0  0  0  0
    5.6583   -0.0358  -11.2168 H   0  0  0  0  0  0  0  0  0  0  0  0
    4.2539   -0.5345  -13.9011 H   0  0  0  0  0  0  0  0  0  0  0  0
    3.6455    0.5709  -12.6871 H   0  0  0  0  0  0  0  0  0  0  0  0
    3.4607    0.9972   -9.8043 H   0  0  0  0  0  0  0  0  0  0  0  0
    7.4625    0.2788   -3.2211 H   0  0  0  0  0  0  0  0  0  0  0  0
    8.7643    1.7717    1.2056 H   0  0  0  0  0  0  0  0  0  0  0  0
    7.8246    2.2271    3.4723 H   0  0  0  0  0  0  0  0  0  0  0  0
  1  2  1  0  0  0  0
  1 36  1  0  0  0  0
  1 37  1  0  0  0  0
  1 38  1  0  0  0  0
  2  3  1  0  0  0  0
  2 39  1  0  0  0  0
  3  4  2  0  0  0  0
  3  5  1  0  0  0  0
  5  6  1  0  0  0  0
  5 35  2  0  0  0  0
  6  7  2  0  0  0  0
  6 40  1  0  0  0  0
  7  8  1  0  0  0  0
  7 33  1  0  0  0  0
  8  9  1  0  0  0  0
  9 10  1  0  0  0  0
  9 32  2  0  0  0  0
 10 11  2  0  0  0  0
 10 41  1  0  0  0  0
 11 12  1  0  0  0  0
 11 42  1  0  0  0  0
 12 13  1  0  0  0  0
 12 31  2  0  0  0  0
 13 14  1  0  0  0  0
 14 15  1  0  0  0  0
 14 30  2  0  0  0  0
 15 16  1  0  0  0  0
 15 43  1  0  0  0  0
 16 17  1  0  0  0  0
 16 29  2  0  0  0  0
 17 18  2  0  0  0  0
 17 44  1  0  0  0  0
 18 19  1  0  0  0  0
 18 45  1  0  0  0  0
 19 20  1  0  0  0  0
 19 21  2  0  0  0  0
 21 22  1  0  0  0  0
 21 29  1  0  0  0  0
 22 23  1  0  0  0  0
 22 46  1  0  0  0  0
 22 47  1  0  0  0  0
 23 24  1  0  0  0  0
 23 28  1  0  0  0  0
 24 25  1  0  0  0  0
 24 48  1  0  0  0  0
 24 49  1  0  0  0  0
 25 26  1  0  0  0  0
 25 50  1  0  0  0  0
 25 51  1  0  0  0  0
 26 27  1  0  0  0  0
 27 28  1  0  0  0  0
 27 52  1  0  0  0  0
 27 53  1  0  0  0  0
 28 54  1  0  0  0  0
 28 55  1  0  0  0  0
 29 56  1  0  0  0  0
 30 31  1  0  0  0  0
 31 32  1  0  0  0  0
 32 57  1  0  0  0  0
 33 34  2  0  0  0  0
 33 58  1  0  0  0  0
 34 35  1  0  0  0  0
 34 59  1  0  0  0  0
M  END
$$$$
