CHEMBL3913970
 OpenBabel04072215373D

 60 64  0  0  1  0  0  0  0  0999 V2000
    1.1661   -0.0877    0.0533 C   0  0  0  0  0  0  0  0  0  0  0  0
    2.3685    0.6788   -0.0114 O   0  0  0  0  0  0  0  0  0  0  0  0
    3.1462    0.7150    1.1192 C   0  0  0  0  0  0  0  0  0  0  0  0
    2.7785    0.2109    2.3579 C   0  0  0  0  0  0  0  0  0  0  0  0
    3.6552    0.3296    3.4370 C   0  0  0  0  0  0  0  0  0  0  0  0
    3.4000   -0.1376    4.7015 O   0  0  0  0  0  0  0  0  0  0  0  0
    2.2478   -0.9602    4.8618 C   0  0  0  0  0  0  0  0  0  0  0  0
    4.9022    0.9614    3.2731 C   0  0  0  0  0  0  0  0  0  0  0  0
    5.3484    1.4250    2.0268 C   0  0  0  0  0  0  0  0  0  0  0  0
    6.6332    2.0212    1.8649 N   0  0  0  0  0  0  0  0  0  0  0  0
    7.1709    2.1172    0.4595 C   0  0  0  0  0  0  0  0  0  0  0  0
    6.7168    3.3061   -0.3855 C   0  0  2  0  0  0  0  0  0  0  0  0
    7.3062    3.2840   -1.7868 C   0  0  0  0  0  0  0  0  0  0  0  0
    7.5722    4.4705   -0.9123 C   0  0  1  0  0  0  0  0  0  0  0  0
    6.9784    5.7769   -1.3573 C   0  0  0  0  0  0  0  0  0  0  0  0
    7.5895    6.1777   -2.5805 O   0  0  0  0  0  0  0  0  0  0  0  0
    7.7557    2.0552    2.7695 C   0  0  0  0  0  0  0  0  0  0  0  0
    8.4943    3.2493    2.7114 C   0  0  0  0  0  0  0  0  0  0  0  0
    9.8346    3.2482    3.0685 C   0  0  0  0  0  0  0  0  0  0  0  0
   10.4361    2.1512    3.6188 C   0  0  0  0  0  0  0  0  0  0  0  0
   11.7665    2.2430    3.7206 N   0  0  0  0  0  0  0  0  0  0  0  0
   12.3826    1.2750    4.4064 C   0  0  0  0  0  0  0  0  0  0  0  0
   11.6855    0.2819    5.0616 C   0  0  0  0  0  0  0  0  0  0  0  0
   12.4289   -0.4271    6.1000 C   0  0  0  0  0  0  0  0  0  0  0  0
   12.4381   -0.2062    7.5028 C   0  0  0  0  0  0  0  0  0  0  0  0
   13.4291   -0.8534    8.1296 N   0  0  0  0  0  0  0  0  0  0  0  0
   14.0707   -1.4835    7.1317 N   0  0  0  0  0  0  0  0  0  0  0  0
   15.0613   -2.4933    7.4233 C   0  0  0  0  0  0  0  0  0  0  0  0
   13.6042   -1.1340    5.8923 C   0  0  0  0  0  0  0  0  0  0  0  0
   10.3333    0.1111    4.8567 N   0  0  0  0  0  0  0  0  0  0  0  0
    9.6765    1.0360    4.0410 C   0  0  0  0  0  0  0  0  0  0  0  0
    8.3236    0.9940    3.5289 C   0  0  0  0  0  0  0  0  0  0  0  0
    4.4098    1.3162    0.9705 C   0  0  0  0  0  0  0  0  0  0  0  0
    0.7257   -0.1183   -0.9486 H   0  0  0  0  0  0  0  0  0  0  0  0
    0.4341    0.3788    0.7221 H   0  0  0  0  0  0  0  0  0  0  0  0
    1.3679   -1.1220    0.3535 H   0  0  0  0  0  0  0  0  0  0  0  0
    1.8126   -0.2574    2.4867 H   0  0  0  0  0  0  0  0  0  0  0  0
    2.2578   -1.3604    5.8795 H   0  0  0  0  0  0  0  0  0  0  0  0
    2.2609   -1.8127    4.1724 H   0  0  0  0  0  0  0  0  0  0  0  0
    1.3307   -0.3733    4.7414 H   0  0  0  0  0  0  0  0  0  0  0  0
    5.5264    1.0781    4.1536 H   0  0  0  0  0  0  0  0  0  0  0  0
    6.9175    1.1931   -0.0750 H   0  0  0  0  0  0  0  0  0  0  0  0
    8.2705    2.1231    0.4528 H   0  0  0  0  0  0  0  0  0  0  0  0
    5.6611    3.5215   -0.2826 H   0  0  0  0  0  0  0  0  0  0  0  0
    6.6258    3.3733   -2.6257 H   0  0  0  0  0  0  0  0  0  0  0  0
    8.1672    2.6558   -2.0012 H   0  0  0  0  0  0  0  0  0  0  0  0
    8.5759    4.6047   -0.5263 H   0  0  0  0  0  0  0  0  0  0  0  0
    5.8978    5.7100   -1.5243 H   0  0  0  0  0  0  0  0  0  0  0  0
    7.1631    6.5637   -0.6211 H   0  0  0  0  0  0  0  0  0  0  0  0
    7.3857    5.4956   -3.2419 H   0  0  0  0  0  0  0  0  0  0  0  0
    8.0720    4.1391    2.2539 H   0  0  0  0  0  0  0  0  0  0  0  0
   10.4336    4.1338    2.8611 H   0  0  0  0  0  0  0  0  0  0  0  0
   13.4615    1.3665    4.4676 H   0  0  0  0  0  0  0  0  0  0  0  0
   11.7924    0.4346    8.0900 H   0  0  0  0  0  0  0  0  0  0  0  0
   15.1804   -2.5982    8.5056 H   0  0  0  0  0  0  0  0  0  0  0  0
   16.0131   -2.2167    6.9636 H   0  0  0  0  0  0  0  0  0  0  0  0
   14.6948   -3.4347    7.0049 H   0  0  0  0  0  0  0  0  0  0  0  0
   14.1326   -1.4299    4.9964 H   0  0  0  0  0  0  0  0  0  0  0  0
    7.7557    0.0765    3.6759 H   0  0  0  0  0  0  0  0  0  0  0  0
    4.6249    1.7034   -0.0198 H   0  0  0  0  0  0  0  0  0  0  0  0
  1  2  1  0  0  0  0
  1 34  1  0  0  0  0
  1 35  1  0  0  0  0
  1 36  1  0  0  0  0
  2  3  1  0  0  0  0
  3  4  1  0  0  0  0
  3 33  2  0  0  0  0
  4  5  2  0  0  0  0
  4 37  1  0  0  0  0
  5  6  1  0  0  0  0
  5  8  1  0  0  0  0
  6  7  1  0  0  0  0
  7 38  1  0  0  0  0
  7 39  1  0  0  0  0
  7 40  1  0  0  0  0
  8  9  2  0  0  0  0
  8 41  1  0  0  0  0
  9 10  1  0  0  0  0
  9 33  1  0  0  0  0
 10 11  1  0  0  0  0
 10 17  1  0  0  0  0
 11 12  1  0  0  0  0
 11 42  1  0  0  0  0
 11 43  1  0  0  0  0
 12 13  1  0  0  0  0
 12 14  1  0  0  0  0
 12 44  1  1  0  0  0
 13 14  1  0  0  0  0
 13 45  1  0  0  0  0
 13 46  1  0  0  0  0
 14 15  1  0  0  0  0
 14 47  1  1  0  0  0
 15 16  1  0  0  0  0
 15 48  1  0  0  0  0
 15 49  1  0  0  0  0
 16 50  1  0  0  0  0
 17 18  1  0  0  0  0
 17 32  2  0  0  0  0
 18 19  2  0  0  0  0
 18 51  1  0  0  0  0
 19 20  1  0  0  0  0
 19 52  1  0  0  0  0
 20 21  1  0  0  0  0
 20 31  2  0  0  0  0
 21 22  2  0  0  0  0
 22 23  1  0  0  0  0
 22 53  1  0  0  0  0
 23 24  1  0  0  0  0
 23 30  2  0  0  0  0
 24 25  1  0  0  0  0
 24 29  2  0  0  0  0
 25 26  2  0  0  0  0
 25 54  1  0  0  0  0
 26 27  1  0  0  0  0
 27 28  1  0  0  0  0
 27 29  1  0  0  0  0
 28 55  1  0  0  0  0
 28 56  1  0  0  0  0
 28 57  1  0  0  0  0
 29 58  1  0  0  0  0
 30 31  1  0  0  0  0
 31 32  1  0  0  0  0
 32 59  1  0  0  0  0
 33 60  1  0  0  0  0
M  END
$$$$
