CHEMBL4080190
 OpenBabel04072215383D

 74 79  0  0  0  0  0  0  0  0999 V2000
    2.8328    9.6562   -8.0052 C   0  0  0  0  0  0  0  0  0  0  0  0
    2.3753    8.7825   -6.9739 O   0  0  0  0  0  0  0  0  0  0  0  0
    2.3514    9.3182   -5.7157 C   0  0  0  0  0  0  0  0  0  0  0  0
    2.0565   10.6791   -5.4958 C   0  0  0  0  0  0  0  0  0  0  0  0
    2.1160   11.2711   -4.2400 C   0  0  0  0  0  0  0  0  0  0  0  0
    1.8712   12.5879   -4.1278 N   0  0  0  0  0  0  0  0  0  0  0  0
    1.9389   13.1324   -2.9037 C   0  0  0  0  0  0  0  0  0  0  0  0
    2.2458   12.4911   -1.7752 N   0  0  0  0  0  0  0  0  0  0  0  0
    2.5530   11.1754   -1.9251 C   0  0  0  0  0  0  0  0  0  0  0  0
    3.0934   10.5110   -0.7889 N   0  0  0  0  0  0  0  0  0  0  0  0
    4.0049    9.5165   -0.9169 N   0  0  0  0  0  0  0  0  0  0  0  0
    4.2256    9.1628    0.3413 C   0  0  0  0  0  0  0  0  0  0  0  0
    5.0385    8.1503    0.6788 N   0  0  0  0  0  0  0  0  0  0  0  0
    5.2153    7.5307    1.9226 C   0  0  0  0  0  0  0  0  0  0  0  0
    6.4284    6.8952    2.2002 C   0  0  0  0  0  0  0  0  0  0  0  0
    6.6931    6.3916    3.4775 C   0  0  0  0  0  0  0  0  0  0  0  0
    5.7551    6.4968    4.5129 C   0  0  0  0  0  0  0  0  0  0  0  0
    6.0444    6.0317    5.7777 N   0  0  0  0  0  0  0  0  0  0  0  0
    5.0462    5.3131    6.5691 C   0  0  0  0  0  0  0  0  0  0  0  0
    5.0188    5.8325    8.0207 C   0  0  0  0  0  0  0  0  0  0  0  0
    6.3381    5.8530    8.6949 N   0  0  0  0  0  0  0  0  0  0  0  0
    6.9300    4.5235    8.9883 C   0  0  0  0  0  0  0  0  0  0  0  0
    5.8956    3.4650    9.4445 C   0  0  0  0  0  0  0  0  0  0  0  0
    6.5315    2.1735    9.9555 C   0  0  0  0  0  0  0  0  0  0  0  0
    7.5362    2.4499   11.0625 C   0  0  0  0  0  0  0  0  0  0  0  0
    8.6116    3.4049   10.5703 C   0  0  0  0  0  0  0  0  0  0  0  0
    8.0017    4.7167   10.0873 C   0  0  0  0  0  0  0  0  0  0  0  0
    7.2309    6.6995    7.8589 C   0  0  0  0  0  0  0  0  0  0  0  0
    7.3610    6.2760    6.3750 C   0  0  0  0  0  0  0  0  0  0  0  0
    4.5403    7.1211    4.2072 C   0  0  0  0  0  0  0  0  0  0  0  0
    3.6098    7.3164    5.1580 F   0  0  0  0  0  0  0  0  0  0  0  0
    4.2721    7.6336    2.9453 C   0  0  0  0  0  0  0  0  0  0  0  0
    3.5906    9.9310    1.2702 N   0  0  0  0  0  0  0  0  0  0  0  0
    2.8860   10.7739    0.5606 C   0  0  0  0  0  0  0  0  0  0  0  0
    2.0238   11.6858    1.0508 N   0  0  0  0  0  0  0  0  0  0  0  0
    2.4496   10.4785   -3.1510 C   0  0  0  0  0  0  0  0  0  0  0  0
    2.6156    9.0828   -3.3571 C   0  0  0  0  0  0  0  0  0  0  0  0
    2.5905    8.4957   -4.6195 C   0  0  0  0  0  0  0  0  0  0  0  0
    2.8404    7.1574   -4.5503 O   0  0  0  0  0  0  0  0  0  0  0  0
    2.9223    6.3918   -5.7371 C   0  0  0  0  0  0  0  0  0  0  0  0
    3.4302    9.0659   -8.7056 H   0  0  0  0  0  0  0  0  0  0  0  0
    3.4749   10.4675   -7.6420 H   0  0  0  0  0  0  0  0  0  0  0  0
    1.9712   10.0649   -8.5411 H   0  0  0  0  0  0  0  0  0  0  0  0
    1.7716   11.3172   -6.3280 H   0  0  0  0  0  0  0  0  0  0  0  0
    1.7522   14.1985   -2.8338 H   0  0  0  0  0  0  0  0  0  0  0  0
    5.5320    7.7060   -0.0847 H   0  0  0  0  0  0  0  0  0  0  0  0
    7.1945    6.8151    1.4330 H   0  0  0  0  0  0  0  0  0  0  0  0
    7.6509    5.9028    3.6518 H   0  0  0  0  0  0  0  0  0  0  0  0
    5.2911    4.2453    6.5517 H   0  0  0  0  0  0  0  0  0  0  0  0
    4.0338    5.3871    6.1581 H   0  0  0  0  0  0  0  0  0  0  0  0
    4.2808    5.2772    8.6091 H   0  0  0  0  0  0  0  0  0  0  0  0
    4.6345    6.8626    8.0102 H   0  0  0  0  0  0  0  0  0  0  0  0
    7.4195    4.1174    8.0935 H   0  0  0  0  0  0  0  0  0  0  0  0
    5.2373    3.1946    8.6107 H   0  0  0  0  0  0  0  0  0  0  0  0
    5.2599    3.8804   10.2361 H   0  0  0  0  0  0  0  0  0  0  0  0
    7.0288    1.6532    9.1276 H   0  0  0  0  0  0  0  0  0  0  0  0
    5.7481    1.5038   10.3281 H   0  0  0  0  0  0  0  0  0  0  0  0
    7.9932    1.5126   11.3968 H   0  0  0  0  0  0  0  0  0  0  0  0
    7.0221    2.8853   11.9286 H   0  0  0  0  0  0  0  0  0  0  0  0
    9.1771    2.9394    9.7539 H   0  0  0  0  0  0  0  0  0  0  0  0
    9.3229    3.6084   11.3784 H   0  0  0  0  0  0  0  0  0  0  0  0
    8.8206    5.3494    9.7288 H   0  0  0  0  0  0  0  0  0  0  0  0
    7.5555    5.2360   10.9462 H   0  0  0  0  0  0  0  0  0  0  0  0
    8.2307    6.7841    8.2953 H   0  0  0  0  0  0  0  0  0  0  0  0
    6.8299    7.7227    7.8860 H   0  0  0  0  0  0  0  0  0  0  0  0
    7.9791    5.3777    6.2783 H   0  0  0  0  0  0  0  0  0  0  0  0
    7.8827    7.0889    5.8532 H   0  0  0  0  0  0  0  0  0  0  0  0
    3.3157    8.1188    2.7907 H   0  0  0  0  0  0  0  0  0  0  0  0
    2.0978   11.8893    2.0429 H   0  0  0  0  0  0  0  0  0  0  0  0
    1.7714   12.4840    0.4718 H   0  0  0  0  0  0  0  0  0  0  0  0
    2.7761    8.4090   -2.5172 H   0  0  0  0  0  0  0  0  0  0  0  0
    3.1957    5.3727   -5.4416 H   0  0  0  0  0  0  0  0  0  0  0  0
    3.7128    6.7574   -6.3980 H   0  0  0  0  0  0  0  0  0  0  0  0
    1.9524    6.3390   -6.2386 H   0  0  0  0  0  0  0  0  0  0  0  0
  1  2  1  0  0  0  0
  1 41  1  0  0  0  0
  1 42  1  0  0  0  0
  1 43  1  0  0  0  0
  2  3  1  0  0  0  0
  3  4  1  0  0  0  0
  3 38  2  0  0  0  0
  4  5  2  0  0  0  0
  4 44  1  0  0  0  0
  5  6  1  0  0  0  0
  5 36  1  0  0  0  0
  6  7  2  0  0  0  0
  7  8  1  0  0  0  0
  7 45  1  0  0  0  0
  8  9  2  0  0  0  0
  9 10  1  0  0  0  0
  9 36  1  0  0  0  0
 10 11  1  0  0  0  0
 10 34  1  0  0  0  0
 11 12  2  0  0  0  0
 12 13  1  0  0  0  0
 12 33  1  0  0  0  0
 13 14  1  0  0  0  0
 13 46  1  0  0  0  0
 14 15  1  0  0  0  0
 14 32  2  0  0  0  0
 15 16  2  0  0  0  0
 15 47  1  0  0  0  0
 16 17  1  0  0  0  0
 16 48  1  0  0  0  0
 17 18  1  0  0  0  0
 17 30  2  0  0  0  0
 18 19  1  0  0  0  0
 18 29  1  0  0  0  0
 19 20  1  0  0  0  0
 19 49  1  0  0  0  0
 19 50  1  0  0  0  0
 20 21  1  0  0  0  0
 20 51  1  0  0  0  0
 20 52  1  0  0  0  0
 21 22  1  0  0  0  0
 21 28  1  0  0  0  0
 22 23  1  0  0  0  0
 22 27  1  0  0  0  0
 22 53  1  0  0  0  0
 23 24  1  0  0  0  0
 23 54  1  0  0  0  0
 23 55  1  0  0  0  0
 24 25  1  0  0  0  0
 24 56  1  0  0  0  0
 24 57  1  0  0  0  0
 25 26  1  0  0  0  0
 25 58  1  0  0  0  0
 25 59  1  0  0  0  0
 26 27  1  0  0  0  0
 26 60  1  0  0  0  0
 26 61  1  0  0  0  0
 27 62  1  0  0  0  0
 27 63  1  0  0  0  0
 28 29  1  0  0  0  0
 28 64  1  0  0  0  0
 28 65  1  0  0  0  0
 29 66  1  0  0  0  0
 29 67  1  0  0  0  0
 30 31  1  0  0  0  0
 30 32  1  0  0  0  0
 32 68  1  0  0  0  0
 33 34  2  0  0  0  0
 34 35  1  0  0  0  0
 35 69  1  0  0  0  0
 35 70  1  0  0  0  0
 36 37  2  0  0  0  0
 37 38  1  0  0  0  0
 37 71  1  0  0  0  0
 38 39  1  0  0  0  0
 39 40  1  0  0  0  0
 40 72  1  0  0  0  0
 40 73  1  0  0  0  0
 40 74  1  0  0  0  0
M  END
$$$$
