CHEMBL3628796
 OpenBabel04072215373D

 52 55  0  0  0  0  0  0  0  0999 V2000
    7.1216   -5.5587   -9.3137 C   0  0  0  0  0  0  0  0  0  0  0  0
    7.7919   -4.6473   -8.4365 O   0  0  0  0  0  0  0  0  0  0  0  0
    6.9862   -3.7347   -7.8089 C   0  0  0  0  0  0  0  0  0  0  0  0
    5.6539   -4.0403   -7.4845 C   0  0  0  0  0  0  0  0  0  0  0  0
    4.7723   -3.1039   -6.9664 C   0  0  0  0  0  0  0  0  0  0  0  0
    3.4923   -3.4505   -6.7853 N   0  0  0  0  0  0  0  0  0  0  0  0
    2.6666   -2.4863   -6.3732 C   0  0  0  0  0  0  0  0  0  0  0  0
    2.9992   -1.2178   -6.1238 N   0  0  0  0  0  0  0  0  0  0  0  0
    4.2946   -0.8861   -6.2838 C   0  0  0  0  0  0  0  0  0  0  0  0
    4.6858    0.4654   -6.0904 N   0  0  0  0  0  0  0  0  0  0  0  0
    3.8153    1.5719   -6.0511 C   0  0  0  0  0  0  0  0  0  0  0  0
    4.0829    2.6342   -5.1913 C   0  0  0  0  0  0  0  0  0  0  0  0
    3.1803    3.6945   -5.0729 C   0  0  0  0  0  0  0  0  0  0  0  0
    2.0046    3.7338   -5.8290 C   0  0  0  0  0  0  0  0  0  0  0  0
    0.9941    4.7072   -5.6521 N   0  0  0  0  0  0  0  0  0  0  0  0
    1.0536    5.7798   -4.7843 C   0  0  0  0  0  0  0  0  0  0  0  0
    2.0581    6.1358   -4.1771 O   0  0  0  0  0  0  0  0  0  0  0  0
   -0.1830    6.3979   -4.6293 N   0  0  0  0  0  0  0  0  0  0  0  0
   -0.3067    7.5141   -3.7654 C   0  0  0  0  0  0  0  0  0  0  0  0
    0.6483    8.5397   -3.7714 C   0  0  0  0  0  0  0  0  0  0  0  0
    0.5801    9.5812   -2.8473 C   0  0  0  0  0  0  0  0  0  0  0  0
   -0.4465    9.6033   -1.9076 C   0  0  0  0  0  0  0  0  0  0  0  0
   -1.4132    8.5972   -1.9192 C   0  0  0  0  0  0  0  0  0  0  0  0
   -2.7754    8.6054   -0.6064 Br  0  0  0  0  0  0  0  0  0  0  0  0
   -1.3664    7.5643   -2.8594 C   0  0  0  0  0  0  0  0  0  0  0  0
    1.7892    2.7279   -6.7707 C   0  0  0  0  0  0  0  0  0  0  0  0
    2.6946    1.6661   -6.8860 C   0  0  0  0  0  0  0  0  0  0  0  0
    5.2540   -1.8251   -6.6925 C   0  0  0  0  0  0  0  0  0  0  0  0
    6.6248   -1.5449   -6.8886 C   0  0  0  0  0  0  0  0  0  0  0  0
    7.4964   -2.4784   -7.4528 C   0  0  0  0  0  0  0  0  0  0  0  0
    8.7497   -1.9667   -7.5961 O   0  0  0  0  0  0  0  0  0  0  0  0
    9.7346   -2.6760   -8.3245 C   0  0  0  0  0  0  0  0  0  0  0  0
    7.7946   -5.7899  -10.1439 H   0  0  0  0  0  0  0  0  0  0  0  0
    6.2049   -5.1464   -9.7545 H   0  0  0  0  0  0  0  0  0  0  0  0
    6.9011   -6.4878   -8.7786 H   0  0  0  0  0  0  0  0  0  0  0  0
    5.2492   -5.0348   -7.6728 H   0  0  0  0  0  0  0  0  0  0  0  0
    1.6216   -2.7482   -6.2412 H   0  0  0  0  0  0  0  0  0  0  0  0
    5.4126    0.5123   -5.3848 H   0  0  0  0  0  0  0  0  0  0  0  0
    4.9709    2.6383   -4.5651 H   0  0  0  0  0  0  0  0  0  0  0  0
    3.4273    4.4613   -4.3470 H   0  0  0  0  0  0  0  0  0  0  0  0
    0.1819    4.6440   -6.2480 H   0  0  0  0  0  0  0  0  0  0  0  0
   -0.9734    5.7702   -4.6715 H   0  0  0  0  0  0  0  0  0  0  0  0
    1.4709    8.5240   -4.4838 H   0  0  0  0  0  0  0  0  0  0  0  0
    1.3436   10.3547   -2.8492 H   0  0  0  0  0  0  0  0  0  0  0  0
   -0.4752   10.3979   -1.1670 H   0  0  0  0  0  0  0  0  0  0  0  0
   -2.1077    6.7722   -2.8287 H   0  0  0  0  0  0  0  0  0  0  0  0
    0.9123    2.7295   -7.4108 H   0  0  0  0  0  0  0  0  0  0  0  0
    2.5030    0.8887   -7.6215 H   0  0  0  0  0  0  0  0  0  0  0  0
    7.0220   -0.5596   -6.6503 H   0  0  0  0  0  0  0  0  0  0  0  0
   10.5402   -1.9649   -8.5406 H   0  0  0  0  0  0  0  0  0  0  0  0
    9.3667   -3.0342   -9.2887 H   0  0  0  0  0  0  0  0  0  0  0  0
   10.1582   -3.4809   -7.7176 H   0  0  0  0  0  0  0  0  0  0  0  0
  1  2  1  0  0  0  0
  1 33  1  0  0  0  0
  1 34  1  0  0  0  0
  1 35  1  0  0  0  0
  2  3  1  0  0  0  0
  3  4  1  0  0  0  0
  3 30  2  0  0  0  0
  4  5  2  0  0  0  0
  4 36  1  0  0  0  0
  5  6  1  0  0  0  0
  5 28  1  0  0  0  0
  6  7  2  0  0  0  0
  7  8  1  0  0  0  0
  7 37  1  0  0  0  0
  8  9  2  0  0  0  0
  9 10  1  0  0  0  0
  9 28  1  0  0  0  0
 10 11  1  0  0  0  0
 10 38  1  0  0  0  0
 11 12  1  0  0  0  0
 11 27  2  0  0  0  0
 12 13  2  0  0  0  0
 12 39  1  0  0  0  0
 13 14  1  0  0  0  0
 13 40  1  0  0  0  0
 14 15  1  0  0  0  0
 14 26  2  0  0  0  0
 15 16  1  0  0  0  0
 15 41  1  0  0  0  0
 16 17  2  0  0  0  0
 16 18  1  0  0  0  0
 18 19  1  0  0  0  0
 18 42  1  0  0  0  0
 19 20  1  0  0  0  0
 19 25  2  0  0  0  0
 20 21  2  0  0  0  0
 20 43  1  0  0  0  0
 21 22  1  0  0  0  0
 21 44  1  0  0  0  0
 22 23  2  0  0  0  0
 22 45  1  0  0  0  0
 23 24  1  0  0  0  0
 23 25  1  0  0  0  0
 25 46  1  0  0  0  0
 26 27  1  0  0  0  0
 26 47  1  0  0  0  0
 27 48  1  0  0  0  0
 28 29  2  0  0  0  0
 29 30  1  0  0  0  0
 29 49  1  0  0  0  0
 30 31  1  0  0  0  0
 31 32  1  0  0  0  0
 32 50  1  0  0  0  0
 32 51  1  0  0  0  0
 32 52  1  0  0  0  0
M  END
$$$$
