CHEMBL271131
 OpenBabel04072215363D

 58 62  0  0  0  0  0  0  0  0999 V2000
    2.9378    9.6357    1.0130 C   0  0  0  0  0  0  0  0  0  0  0  0
    3.3837    9.2152   -0.2694 O   0  0  0  0  0  0  0  0  0  0  0  0
    3.7983    7.9168   -0.4082 C   0  0  0  0  0  0  0  0  0  0  0  0
    3.4460    6.9011    0.4896 C   0  0  0  0  0  0  0  0  0  0  0  0
    3.8039    5.5616    0.2623 C   0  0  0  0  0  0  0  0  0  0  0  0
    3.4158    4.5166    1.1398 N   0  0  0  0  0  0  0  0  0  0  0  0
    2.0663    4.3096    1.4799 C   0  0  0  0  0  0  0  0  0  0  0  0
    1.7805    3.9675    2.7302 N   0  0  0  0  0  0  0  0  0  0  0  0
    0.4823    3.9907    3.0310 C   0  0  0  0  0  0  0  0  0  0  0  0
   -0.5006    4.4176    2.2404 N   0  0  0  0  0  0  0  0  0  0  0  0
   -0.1115    4.6791    0.9907 C   0  0  0  0  0  0  0  0  0  0  0  0
   -0.9729    5.3720    0.0975 N   0  0  0  0  0  0  0  0  0  0  0  0
   -0.8852    5.3493   -1.3002 C   0  0  0  0  0  0  0  0  0  0  0  0
   -0.3336    4.3214   -1.9953 N   0  0  0  0  0  0  0  0  0  0  0  0
   -0.3893    4.1359   -3.4041 C   0  0  0  0  0  0  0  0  0  0  0  0
   -1.0274    5.0276   -4.2780 C   0  0  0  0  0  0  0  0  0  0  0  0
   -1.1522    4.7692   -5.6447 C   0  0  0  0  0  0  0  0  0  0  0  0
   -0.6414    3.5933   -6.1735 C   0  0  0  0  0  0  0  0  0  0  0  0
   -0.0031    2.6858   -5.3341 C   0  0  0  0  0  0  0  0  0  0  0  0
    0.1196    2.9526   -3.9618 C   0  0  0  0  0  0  0  0  0  0  0  0
   -1.4170    6.4408   -1.7971 N   0  0  0  0  0  0  0  0  0  0  0  0
   -1.8819    7.1621   -0.7521 C   0  0  0  0  0  0  0  0  0  0  0  0
   -2.3857    8.4652   -0.7739 C   0  0  0  0  0  0  0  0  0  0  0  0
   -2.8018    9.0351    0.4262 C   0  0  0  0  0  0  0  0  0  0  0  0
   -2.7736    8.2916    1.6077 C   0  0  0  0  0  0  0  0  0  0  0  0
   -2.2670    6.9823    1.6454 C   0  0  0  0  0  0  0  0  0  0  0  0
   -1.7765    6.4575    0.4412 C   0  0  0  0  0  0  0  0  0  0  0  0
    1.1418    4.5460    0.5565 N   0  0  0  0  0  0  0  0  0  0  0  0
    4.5736    5.2505   -0.8557 C   0  0  0  0  0  0  0  0  0  0  0  0
    4.9079    6.2398   -1.7873 C   0  0  0  0  0  0  0  0  0  0  0  0
    5.6277    5.9597   -2.9268 O   0  0  0  0  0  0  0  0  0  0  0  0
    5.3440    4.6932   -3.5151 C   0  0  0  0  0  0  0  0  0  0  0  0
    4.5473    7.5851   -1.5622 C   0  0  0  0  0  0  0  0  0  0  0  0
    4.9073    8.4585   -2.5642 O   0  0  0  0  0  0  0  0  0  0  0  0
    5.2219    9.7916   -2.1857 C   0  0  0  0  0  0  0  0  0  0  0  0
    2.6915   10.7004    0.9481 H   0  0  0  0  0  0  0  0  0  0  0  0
    3.7348    9.5213    1.7568 H   0  0  0  0  0  0  0  0  0  0  0  0
    2.0281    9.1129    1.3193 H   0  0  0  0  0  0  0  0  0  0  0  0
    2.8432    7.1231    1.3626 H   0  0  0  0  0  0  0  0  0  0  0  0
    3.9206    4.5583    2.0200 H   0  0  0  0  0  0  0  0  0  0  0  0
    0.2052    3.6522    4.0254 H   0  0  0  0  0  0  0  0  0  0  0  0
    0.2969    3.6789   -1.5224 H   0  0  0  0  0  0  0  0  0  0  0  0
   -1.4522    5.9613   -3.9271 H   0  0  0  0  0  0  0  0  0  0  0  0
   -1.6577    5.4915   -6.2798 H   0  0  0  0  0  0  0  0  0  0  0  0
   -0.7534    3.3848   -7.2343 H   0  0  0  0  0  0  0  0  0  0  0  0
    0.3904    1.7609   -5.7451 H   0  0  0  0  0  0  0  0  0  0  0  0
    0.6066    2.2122   -3.3340 H   0  0  0  0  0  0  0  0  0  0  0  0
   -2.4005    9.0170   -1.7084 H   0  0  0  0  0  0  0  0  0  0  0  0
   -3.1419   10.0671    0.4308 H   0  0  0  0  0  0  0  0  0  0  0  0
   -3.1243    8.7561    2.5274 H   0  0  0  0  0  0  0  0  0  0  0  0
   -2.2160    6.4339    2.5800 H   0  0  0  0  0  0  0  0  0  0  0  0
    4.8777    4.2196   -1.0036 H   0  0  0  0  0  0  0  0  0  0  0  0
    5.7189    4.7062   -4.5427 H   0  0  0  0  0  0  0  0  0  0  0  0
    4.2676    4.4910   -3.5536 H   0  0  0  0  0  0  0  0  0  0  0  0
    5.8720    3.8955   -2.9822 H   0  0  0  0  0  0  0  0  0  0  0  0
    5.8174   10.2335   -2.9916 H   0  0  0  0  0  0  0  0  0  0  0  0
    5.8242    9.8306   -1.2718 H   0  0  0  0  0  0  0  0  0  0  0  0
    4.3161   10.3983   -2.0977 H   0  0  0  0  0  0  0  0  0  0  0  0
  1  2  1  0  0  0  0
  1 36  1  0  0  0  0
  1 37  1  0  0  0  0
  1 38  1  0  0  0  0
  2  3  1  0  0  0  0
  3  4  1  0  0  0  0
  3 33  2  0  0  0  0
  4  5  2  0  0  0  0
  4 39  1  0  0  0  0
  5  6  1  0  0  0  0
  5 29  1  0  0  0  0
  6  7  1  0  0  0  0
  6 40  1  0  0  0  0
  7  8  1  0  0  0  0
  7 28  2  0  0  0  0
  8  9  2  0  0  0  0
  9 10  1  0  0  0  0
  9 41  1  0  0  0  0
 10 11  2  0  0  0  0
 11 12  1  0  0  0  0
 11 28  1  0  0  0  0
 12 13  1  0  0  0  0
 12 27  1  0  0  0  0
 13 14  1  0  0  0  0
 13 21  2  0  0  0  0
 14 15  1  0  0  0  0
 14 42  1  0  0  0  0
 15 16  1  0  0  0  0
 15 20  2  0  0  0  0
 16 17  2  0  0  0  0
 16 43  1  0  0  0  0
 17 18  1  0  0  0  0
 17 44  1  0  0  0  0
 18 19  2  0  0  0  0
 18 45  1  0  0  0  0
 19 20  1  0  0  0  0
 19 46  1  0  0  0  0
 20 47  1  0  0  0  0
 21 22  1  0  0  0  0
 22 23  1  0  0  0  0
 22 27  2  0  0  0  0
 23 24  2  0  0  0  0
 23 48  1  0  0  0  0
 24 25  1  0  0  0  0
 24 49  1  0  0  0  0
 25 26  2  0  0  0  0
 25 50  1  0  0  0  0
 26 27  1  0  0  0  0
 26 51  1  0  0  0  0
 29 30  2  0  0  0  0
 29 52  1  0  0  0  0
 30 31  1  0  0  0  0
 30 33  1  0  0  0  0
 31 32  1  0  0  0  0
 32 53  1  0  0  0  0
 32 54  1  0  0  0  0
 32 55  1  0  0  0  0
 33 34  1  0  0  0  0
 34 35  1  0  0  0  0
 35 56  1  0  0  0  0
 35 57  1  0  0  0  0
 35 58  1  0  0  0  0
M  END
$$$$
