CHEMBL3983450
 OpenBabel04072215373D

 73 77  0  0  1  0  0  0  0  0999 V2000
    0.5616    2.8928    3.3037 C   0  0  0  0  0  0  0  0  0  0  0  0
    2.0462    2.8255    2.9753 C   0  0  0  0  0  0  0  0  0  0  0  0
    2.8992    3.0779    4.2210 C   0  0  0  0  0  0  0  0  0  0  0  0
    4.4091    2.9932    3.9562 C   0  0  0  0  0  0  0  0  0  0  0  0
    4.9419    4.0403    3.0057 C   0  0  0  0  0  0  0  0  0  0  0  0
    4.8556    5.4003    3.3283 C   0  0  0  0  0  0  0  0  0  0  0  0
    5.3443    6.3696    2.4537 C   0  0  0  0  0  0  0  0  0  0  0  0
    5.8467    6.0044    1.1998 C   0  0  0  0  0  0  0  0  0  0  0  0
    6.2167    7.0131    0.1641 C   0  0  0  0  0  0  0  0  0  0  0  0
    7.2343    6.8047   -0.5034 O   0  0  0  0  0  0  0  0  0  0  0  0
    5.3935    8.1223   -0.0694 N   0  0  0  0  0  0  0  0  0  0  0  0
    4.0889    8.3987    0.5445 C   0  0  0  0  0  0  0  0  0  0  0  0
    3.0081    8.7077   -0.4945 C   0  0  0  0  0  0  0  0  0  0  0  0
    3.4307    9.6839   -1.4521 O   0  0  0  0  0  0  0  0  0  0  0  0
    4.6625    9.3324   -2.1211 C   0  0  3  0  0  0  0  0  0  0  0  0
    4.5393    8.0686   -2.9849 C   0  0  0  0  0  0  0  0  0  0  0  0
    3.5086    8.1511   -3.9889 O   0  0  0  0  0  0  0  0  0  0  0  0
    3.3370    6.9797   -4.6994 C   0  0  0  0  0  0  0  0  0  0  0  0
    3.5332    5.7452   -4.0748 C   0  0  0  0  0  0  0  0  0  0  0  0
    3.4718    4.5453   -4.7303 C   0  0  0  0  0  0  0  0  0  0  0  0
    3.8178    3.5036   -3.9702 N   0  0  0  0  0  0  0  0  0  0  0  0
    3.8579    2.3258   -4.5641 C   0  0  0  0  0  0  0  0  0  0  0  0
    3.5541    2.1091   -5.8367 N   0  0  0  0  0  0  0  0  0  0  0  0
    3.2067    3.1779   -6.5953 C   0  0  0  0  0  0  0  0  0  0  0  0
    3.1403    2.7538   -7.9112 N   0  0  0  0  0  0  0  0  0  0  0  0
    2.4357    3.0042   -9.0888 C   0  0  0  0  0  0  0  0  0  0  0  0
    3.0005    2.4404  -10.2490 C   0  0  0  0  0  0  0  0  0  0  0  0
    2.3282    2.4606  -11.4686 C   0  0  0  0  0  0  0  0  0  0  0  0
    1.0749    3.0566  -11.5465 C   0  0  0  0  0  0  0  0  0  0  0  0
    0.2571    2.9847  -13.0674 Cl  0  0  0  0  0  0  0  0  0  0  0  0
    0.5143    3.6515  -10.4064 C   0  0  0  0  0  0  0  0  0  0  0  0
   -1.0512    4.3856  -10.4412 Cl  0  0  0  0  0  0  0  0  0  0  0  0
    1.1993    3.6307   -9.1792 C   0  0  0  0  0  0  0  0  0  0  0  0
    3.1313    4.4902   -6.0832 C   0  0  0  0  0  0  0  0  0  0  0  0
    2.8247    5.7370   -6.7234 C   0  0  0  0  0  0  0  0  0  0  0  0
    2.9308    6.9748   -6.0374 C   0  0  0  0  0  0  0  0  0  0  0  0
    2.5851    8.0577   -6.8064 O   0  0  0  0  0  0  0  0  0  0  0  0
    3.1640    9.3138   -6.4665 C   0  0  0  0  0  0  0  0  0  0  0  0
    5.7868    9.1221   -1.0783 C   0  0  0  0  0  0  0  0  0  0  0  0
    6.0006    4.6429    0.9002 C   0  0  0  0  0  0  0  0  0  0  0  0
    5.5572    3.6707    1.8020 C   0  0  0  0  0  0  0  0  0  0  0  0
   -0.0359    2.7276    2.4018 H   0  0  0  0  0  0  0  0  0  0  0  0
    0.2951    3.8733    3.7120 H   0  0  0  0  0  0  0  0  0  0  0  0
    0.2867    2.1293    4.0385 H   0  0  0  0  0  0  0  0  0  0  0  0
    2.2681    3.5698    2.2027 H   0  0  0  0  0  0  0  0  0  0  0  0
    2.2791    1.8399    2.5563 H   0  0  0  0  0  0  0  0  0  0  0  0
    2.6441    2.3295    4.9823 H   0  0  0  0  0  0  0  0  0  0  0  0
    2.6417    4.0544    4.6486 H   0  0  0  0  0  0  0  0  0  0  0  0
    4.6550    1.9883    3.5912 H   0  0  0  0  0  0  0  0  0  0  0  0
    4.9411    3.1072    4.9096 H   0  0  0  0  0  0  0  0  0  0  0  0
    4.3977    5.7143    4.2629 H   0  0  0  0  0  0  0  0  0  0  0  0
    5.2958    7.4159    2.7451 H   0  0  0  0  0  0  0  0  0  0  0  0
    4.2413    9.2662    1.1960 H   0  0  0  0  0  0  0  0  0  0  0  0
    3.7234    7.5686    1.1442 H   0  0  0  0  0  0  0  0  0  0  0  0
    2.1234    9.0990    0.0172 H   0  0  0  0  0  0  0  0  0  0  0  0
    2.6908    7.7947   -1.0094 H   0  0  0  0  0  0  0  0  0  0  0  0
    4.9075   10.1809   -2.7679 H   0  0  0  0  0  0  0  0  0  0  0  0
    4.3239    7.2615   -2.2881 H   0  0  0  0  0  0  0  0  0  0  0  0
    5.4968    7.8623   -3.4787 H   0  0  0  0  0  0  0  0  0  0  0  0
    3.7697    5.6669   -3.0200 H   0  0  0  0  0  0  0  0  0  0  0  0
    4.1864    1.4829   -3.9697 H   0  0  0  0  0  0  0  0  0  0  0  0
    3.2660    1.7442   -7.8157 H   0  0  0  0  0  0  0  0  0  0  0  0
    3.9682    1.9475  -10.1898 H   0  0  0  0  0  0  0  0  0  0  0  0
    2.7821    1.9854  -12.3335 H   0  0  0  0  0  0  0  0  0  0  0  0
    0.7278    4.0520   -8.2955 H   0  0  0  0  0  0  0  0  0  0  0  0
    2.5302    5.7490   -7.7669 H   0  0  0  0  0  0  0  0  0  0  0  0
    2.9402   10.0143   -7.2785 H   0  0  0  0  0  0  0  0  0  0  0  0
    4.2535    9.2382   -6.3891 H   0  0  0  0  0  0  0  0  0  0  0  0
    2.7214    9.7367   -5.5598 H   0  0  0  0  0  0  0  0  0  0  0  0
    5.9587   10.0563   -0.5294 H   0  0  0  0  0  0  0  0  0  0  0  0
    6.7228    8.8454   -1.5723 H   0  0  0  0  0  0  0  0  0  0  0  0
    6.4594    4.3413   -0.0381 H   0  0  0  0  0  0  0  0  0  0  0  0
    5.6831    2.6204    1.5474 H   0  0  0  0  0  0  0  0  0  0  0  0
  1  2  1  0  0  0  0
  1 42  1  0  0  0  0
  1 43  1  0  0  0  0
  1 44  1  0  0  0  0
  2  3  1  0  0  0  0
  2 45  1  0  0  0  0
  2 46  1  0  0  0  0
  3  4  1  0  0  0  0
  3 47  1  0  0  0  0
  3 48  1  0  0  0  0
  4  5  1  0  0  0  0
  4 49  1  0  0  0  0
  4 50  1  0  0  0  0
  5  6  1  0  0  0  0
  5 41  2  0  0  0  0
  6  7  2  0  0  0  0
  6 51  1  0  0  0  0
  7  8  1  0  0  0  0
  7 52  1  0  0  0  0
  8  9  1  0  0  0  0
  8 40  2  0  0  0  0
  9 10  2  0  0  0  0
  9 11  1  0  0  0  0
 11 12  1  0  0  0  0
 11 39  1  0  0  0  0
 12 13  1  0  0  0  0
 12 53  1  0  0  0  0
 12 54  1  0  0  0  0
 13 14  1  0  0  0  0
 13 55  1  0  0  0  0
 13 56  1  0  0  0  0
 14 15  1  0  0  0  0
 15 16  1  0  0  0  0
 15 39  1  0  0  0  0
 15 57  1  0  0  0  0
 16 17  1  0  0  0  0
 16 58  1  0  0  0  0
 16 59  1  0  0  0  0
 17 18  1  0  0  0  0
 18 19  1  0  0  0  0
 18 36  2  0  0  0  0
 19 20  2  0  0  0  0
 19 60  1  0  0  0  0
 20 21  1  0  0  0  0
 20 34  1  0  0  0  0
 21 22  2  0  0  0  0
 22 23  1  0  0  0  0
 22 61  1  0  0  0  0
 23 24  2  0  0  0  0
 24 25  1  0  0  0  0
 24 34  1  0  0  0  0
 25 26  1  0  0  0  0
 25 62  1  0  0  0  0
 26 27  1  0  0  0  0
 26 33  2  0  0  0  0
 27 28  2  0  0  0  0
 27 63  1  0  0  0  0
 28 29  1  0  0  0  0
 28 64  1  0  0  0  0
 29 30  1  0  0  0  0
 29 31  2  0  0  0  0
 31 32  1  0  0  0  0
 31 33  1  0  0  0  0
 33 65  1  0  0  0  0
 34 35  2  0  0  0  0
 35 36  1  0  0  0  0
 35 66  1  0  0  0  0
 36 37  1  0  0  0  0
 37 38  1  0  0  0  0
 38 67  1  0  0  0  0
 38 68  1  0  0  0  0
 38 69  1  0  0  0  0
 39 70  1  0  0  0  0
 39 71  1  0  0  0  0
 40 41  1  0  0  0  0
 40 72  1  0  0  0  0
 41 73  1  0  0  0  0
M  END
$$$$
