CHEMBL3577115
 OpenBabel04072215363D

 62 65  0  0  0  0  0  0  0  0999 V2000
    1.8375   -0.6604   -0.1057 C   0  0  0  0  0  0  0  0  0  0  0  0
    1.6419    0.1379   -1.3842 C   0  0  0  0  0  0  0  0  0  0  0  0
    2.5737    1.2575   -1.4878 N   0  0  0  0  0  0  0  0  0  0  0  0
    2.1652    2.4691   -0.9359 C   0  0  0  0  0  0  0  0  0  0  0  0
    1.1094    2.6043   -0.3169 O   0  0  0  0  0  0  0  0  0  0  0  0
    3.0518    3.6589   -1.1486 C   0  0  0  0  0  0  0  0  0  0  0  0
    2.5633    4.9825   -0.7344 C   0  0  0  0  0  0  0  0  0  0  0  0
    2.9864    5.5857    0.4582 C   0  0  0  0  0  0  0  0  0  0  0  0
    2.4490    6.8146    0.8468 C   0  0  0  0  0  0  0  0  0  0  0  0
    1.5062    7.4418    0.0381 C   0  0  0  0  0  0  0  0  0  0  0  0
    0.9720    8.5984    0.4550 F   0  0  0  0  0  0  0  0  0  0  0  0
    1.0783    6.8520   -1.1557 C   0  0  0  0  0  0  0  0  0  0  0  0
    0.1050    7.4276   -1.9903 N   0  0  0  0  0  0  0  0  0  0  0  0
   -0.0134    8.7296   -2.3949 C   0  0  0  0  0  0  0  0  0  0  0  0
   -1.0388    9.0564   -2.9930 O   0  0  0  0  0  0  0  0  0  0  0  0
    1.1105    9.4946   -2.2410 N   0  0  0  0  0  0  0  0  0  0  0  0
    1.2202   10.7637   -2.7378 C   0  0  0  0  0  0  0  0  0  0  0  0
    2.3311   11.5487   -2.9259 C   0  0  0  0  0  0  0  0  0  0  0  0
    1.8281   12.7381   -3.5160 C   0  0  0  0  0  0  0  0  0  0  0  0
    2.6120   13.9345   -4.0160 C   0  0  0  0  0  0  0  0  0  0  0  0
    3.5106   13.5043   -5.1941 C   0  0  0  0  0  0  0  0  0  0  0  0
    1.6887   15.0688   -4.5080 C   0  0  0  0  0  0  0  0  0  0  0  0
    3.5005   14.4971   -2.8901 C   0  0  0  0  0  0  0  0  0  0  0  0
    0.4921   12.6844   -3.6332 N   0  0  0  0  0  0  0  0  0  0  0  0
    0.1198   11.4459   -3.1525 O   0  0  0  0  0  0  0  0  0  0  0  0
    1.5957    5.6129   -1.5287 C   0  0  0  0  0  0  0  0  0  0  0  0
    4.2279    3.5340   -1.7830 C   0  0  0  0  0  0  0  0  0  0  0  0
    4.6817    2.2199   -2.2275 C   0  0  0  0  0  0  0  0  0  0  0  0
    5.9243    2.0343   -2.8184 C   0  0  0  0  0  0  0  0  0  0  0  0
    6.4139    0.8336   -3.2077 N   0  0  0  0  0  0  0  0  0  0  0  0
    5.6430   -0.2521   -3.0255 C   0  0  0  0  0  0  0  0  0  0  0  0
    6.0677   -1.5225   -3.4370 N   0  0  0  0  0  0  0  0  0  0  0  0
    7.4332   -1.6490   -3.9185 C   0  0  0  0  0  0  0  0  0  0  0  0
    4.3575   -0.1429   -2.4947 C   0  0  0  0  0  0  0  0  0  0  0  0
    3.8661    1.0983   -2.0762 C   0  0  0  0  0  0  0  0  0  0  0  0
    1.0908   -1.4575   -0.0415 H   0  0  0  0  0  0  0  0  0  0  0  0
    1.7326   -0.0216    0.7774 H   0  0  0  0  0  0  0  0  0  0  0  0
    2.8306   -1.1176   -0.0693 H   0  0  0  0  0  0  0  0  0  0  0  0
    0.6167    0.5295   -1.3948 H   0  0  0  0  0  0  0  0  0  0  0  0
    1.7105   -0.4990   -2.2718 H   0  0  0  0  0  0  0  0  0  0  0  0
    3.7007    5.0867    1.1093 H   0  0  0  0  0  0  0  0  0  0  0  0
    2.7327    7.2741    1.7889 H   0  0  0  0  0  0  0  0  0  0  0  0
   -0.5643    6.8148   -2.4329 H   0  0  0  0  0  0  0  0  0  0  0  0
    1.9619    9.0419   -1.9419 H   0  0  0  0  0  0  0  0  0  0  0  0
    3.3545   11.2920   -2.7179 H   0  0  0  0  0  0  0  0  0  0  0  0
    2.9118   13.1209   -6.0293 H   0  0  0  0  0  0  0  0  0  0  0  0
    4.2077   12.7101   -4.9017 H   0  0  0  0  0  0  0  0  0  0  0  0
    4.1059   14.3452   -5.5670 H   0  0  0  0  0  0  0  0  0  0  0  0
    1.0585   14.7399   -5.3435 H   0  0  0  0  0  0  0  0  0  0  0  0
    2.2692   15.9309   -4.8547 H   0  0  0  0  0  0  0  0  0  0  0  0
    1.0231   15.4169   -3.7089 H   0  0  0  0  0  0  0  0  0  0  0  0
    4.2096   13.7479   -2.5200 H   0  0  0  0  0  0  0  0  0  0  0  0
    2.8959   14.8268   -2.0372 H   0  0  0  0  0  0  0  0  0  0  0  0
    4.0843   15.3564   -3.2397 H   0  0  0  0  0  0  0  0  0  0  0  0
    1.2691    5.1436   -2.4546 H   0  0  0  0  0  0  0  0  0  0  0  0
    4.8610    4.3922   -1.9860 H   0  0  0  0  0  0  0  0  0  0  0  0
    6.5953    2.8688   -3.0046 H   0  0  0  0  0  0  0  0  0  0  0  0
    5.8650   -2.2066   -2.7134 H   0  0  0  0  0  0  0  0  0  0  0  0
    7.8650   -0.7258   -4.3157 H   0  0  0  0  0  0  0  0  0  0  0  0
    7.4453   -2.3835   -4.7305 H   0  0  0  0  0  0  0  0  0  0  0  0
    8.0816   -2.0280   -3.1211 H   0  0  0  0  0  0  0  0  0  0  0  0
    3.7682   -1.0471   -2.4084 H   0  0  0  0  0  0  0  0  0  0  0  0
  1  2  1  0  0  0  0
  1 36  1  0  0  0  0
  1 37  1  0  0  0  0
  1 38  1  0  0  0  0
  2  3  1  0  0  0  0
  2 39  1  0  0  0  0
  2 40  1  0  0  0  0
  3  4  1  0  0  0  0
  3 35  1  0  0  0  0
  4  5  2  0  0  0  0
  4  6  1  0  0  0  0
  6  7  1  0  0  0  0
  6 27  2  0  0  0  0
  7  8  1  0  0  0  0
  7 26  2  0  0  0  0
  8  9  2  0  0  0  0
  8 41  1  0  0  0  0
  9 10  1  0  0  0  0
  9 42  1  0  0  0  0
 10 11  1  0  0  0  0
 10 12  2  0  0  0  0
 12 13  1  0  0  0  0
 12 26  1  0  0  0  0
 13 14  1  0  0  0  0
 13 43  1  0  0  0  0
 14 15  2  0  0  0  0
 14 16  1  0  0  0  0
 16 17  1  0  0  0  0
 16 44  1  0  0  0  0
 17 18  2  0  0  0  0
 17 25  1  0  0  0  0
 18 19  1  0  0  0  0
 18 45  1  0  0  0  0
 19 20  1  0  0  0  0
 19 24  2  0  0  0  0
 20 21  1  0  0  0  0
 20 22  1  0  0  0  0
 20 23  1  0  0  0  0
 21 46  1  0  0  0  0
 21 47  1  0  0  0  0
 21 48  1  0  0  0  0
 22 49  1  0  0  0  0
 22 50  1  0  0  0  0
 22 51  1  0  0  0  0
 23 52  1  0  0  0  0
 23 53  1  0  0  0  0
 23 54  1  0  0  0  0
 24 25  1  0  0  0  0
 26 55  1  0  0  0  0
 27 28  1  0  0  0  0
 27 56  1  0  0  0  0
 28 29  1  0  0  0  0
 28 35  2  0  0  0  0
 29 30  2  0  0  0  0
 29 57  1  0  0  0  0
 30 31  1  0  0  0  0
 31 32  1  0  0  0  0
 31 34  2  0  0  0  0
 32 33  1  0  0  0  0
 32 58  1  0  0  0  0
 33 59  1  0  0  0  0
 33 60  1  0  0  0  0
 33 61  1  0  0  0  0
 34 35  1  0  0  0  0
 34 62  1  0  0  0  0
M  END
$$$$
