CHEMBL1081831
 OpenBabel04072215353D

 49 52  0  0  1  0  0  0  0  0999 V2000
    2.8784   -0.4358    1.3789 N   0  0  0  0  0  0  0  0  0  0  0  0
    2.4148   -0.2231   -0.0132 C   0  0  2  0  0  0  0  0  0  0  0  0
    0.8671   -0.1075   -0.0538 C   0  0  0  0  0  0  0  0  0  0  0  0
    0.4107    0.9276    0.8628 N   0  0  0  0  0  0  0  0  0  0  0  0
   -0.9165    1.1651    0.9429 C   0  0  0  0  0  0  0  0  0  0  0  0
   -1.7869    0.8471    0.0136 N   0  0  0  0  0  0  0  0  0  0  0  0
   -3.0467    1.2776    0.3740 C   0  0  0  0  0  0  0  0  0  0  0  0
   -3.1545    1.9133    1.5983 C   0  0  0  0  0  0  0  0  0  0  0  0
   -4.3381    2.5037    2.2473 C   0  0  0  0  0  0  0  0  0  0  0  0
   -5.6291    1.9805    1.9707 C   0  0  0  0  0  0  0  0  0  0  0  0
   -6.7891    2.5468    2.5168 C   0  0  0  0  0  0  0  0  0  0  0  0
   -6.6310    3.6374    3.3385 C   0  0  0  0  0  0  0  0  0  0  0  0
   -5.3815    4.1670    3.6354 C   0  0  0  0  0  0  0  0  0  0  0  0
   -4.2280    3.6161    3.1024 C   0  0  0  0  0  0  0  0  0  0  0  0
   -5.5439    5.3528    4.5417 C   0  0  0  0  0  0  0  0  0  0  0  0
   -7.0656    5.4151    4.7154 C   0  0  0  0  0  0  0  0  0  0  0  0
   -7.6901    6.2278    5.3764 O   0  0  0  0  0  0  0  0  0  0  0  0
   -7.6149    4.3733    3.9772 N   0  0  0  0  0  0  0  0  0  0  0  0
   -1.5931    1.9339    2.3256 S   0  0  0  0  0  0  0  0  0  0  0  0
    2.8594   -1.3562   -0.9716 C   0  0  0  0  0  0  0  0  0  0  0  0
    4.3518   -1.5920   -1.0575 C   0  0  0  0  0  0  0  0  0  0  0  0
    4.8847   -2.8410   -0.7101 C   0  0  0  0  0  0  0  0  0  0  0  0
    6.2595   -3.0783   -0.7894 C   0  0  0  0  0  0  0  0  0  0  0  0
    7.1326   -2.0715   -1.2218 C   0  0  0  0  0  0  0  0  0  0  0  0
    8.6210   -2.3051   -1.2931 C   0  0  0  0  0  0  0  0  0  0  0  0
    8.9963   -3.5539   -0.8941 F   0  0  0  0  0  0  0  0  0  0  0  0
    9.1180   -2.1510   -2.5501 F   0  0  0  0  0  0  0  0  0  0  0  0
    9.3212   -1.4410   -0.5051 F   0  0  0  0  0  0  0  0  0  0  0  0
    6.5972   -0.8281   -1.5892 C   0  0  0  0  0  0  0  0  0  0  0  0
    5.2205   -0.5920   -1.5123 C   0  0  0  0  0  0  0  0  0  0  0  0
    3.8946   -0.5527    1.3666 H   0  0  0  0  0  0  0  0  0  0  0  0
    2.5082   -1.3185    1.7287 H   0  0  0  0  0  0  0  0  0  0  0  0
    2.8408    0.7295   -0.3487 H   0  0  0  0  0  0  0  0  0  0  0  0
    0.5481    0.1206   -1.0781 H   0  0  0  0  0  0  0  0  0  0  0  0
    0.4218   -1.0684    0.2354 H   0  0  0  0  0  0  0  0  0  0  0  0
    0.9672    0.9830    1.7134 H   0  0  0  0  0  0  0  0  0  0  0  0
   -3.8636    1.1164   -0.3190 H   0  0  0  0  0  0  0  0  0  0  0  0
   -5.7416    1.1148    1.3203 H   0  0  0  0  0  0  0  0  0  0  0  0
   -7.7676    2.1386    2.2909 H   0  0  0  0  0  0  0  0  0  0  0  0
   -3.2661    4.0637    3.3328 H   0  0  0  0  0  0  0  0  0  0  0  0
   -5.1903    6.2694    4.0631 H   0  0  0  0  0  0  0  0  0  0  0  0
   -5.0678    5.1825    5.5103 H   0  0  0  0  0  0  0  0  0  0  0  0
   -8.6086    4.2060    3.9268 H   0  0  0  0  0  0  0  0  0  0  0  0
    2.4992   -1.1368   -1.9855 H   0  0  0  0  0  0  0  0  0  0  0  0
    2.3627   -2.2890   -0.6740 H   0  0  0  0  0  0  0  0  0  0  0  0
    4.2323   -3.6454   -0.3753 H   0  0  0  0  0  0  0  0  0  0  0  0
    6.6455   -4.0582   -0.5110 H   0  0  0  0  0  0  0  0  0  0  0  0
    7.2553   -0.0345   -1.9415 H   0  0  0  0  0  0  0  0  0  0  0  0
    4.8350    0.3805   -1.8132 H   0  0  0  0  0  0  0  0  0  0  0  0
  1 31  1  0  0  0  0
  1 32  1  0  0  0  0
  2 20  1  0  0  0  0
  2  3  1  0  0  0  0
  2  1  1  0  0  0  0
  2 33  1  6  0  0  0
  3  4  1  0  0  0  0
  3 34  1  0  0  0  0
  3 35  1  0  0  0  0
  4  5  1  0  0  0  0
  4 36  1  0  0  0  0
  5  6  2  0  0  0  0
  5 19  1  0  0  0  0
  6  7  1  0  0  0  0
  7  8  2  0  0  0  0
  7 37  1  0  0  0  0
  8  9  1  0  0  0  0
  8 19  1  0  0  0  0
  9 10  1  0  0  0  0
  9 14  2  0  0  0  0
 10 11  2  0  0  0  0
 10 38  1  0  0  0  0
 11 12  1  0  0  0  0
 11 39  1  0  0  0  0
 12 13  2  0  0  0  0
 12 18  1  0  0  0  0
 13 14  1  0  0  0  0
 13 15  1  0  0  0  0
 14 40  1  0  0  0  0
 15 16  1  0  0  0  0
 15 41  1  0  0  0  0
 15 42  1  0  0  0  0
 16 17  2  0  0  0  0
 16 18  1  0  0  0  0
 18 43  1  0  0  0  0
 20 21  1  0  0  0  0
 20 44  1  0  0  0  0
 20 45  1  0  0  0  0
 21 22  1  0  0  0  0
 21 30  2  0  0  0  0
 22 23  2  0  0  0  0
 22 46  1  0  0  0  0
 23 24  1  0  0  0  0
 23 47  1  0  0  0  0
 24 25  1  0  0  0  0
 24 29  2  0  0  0  0
 25 26  1  0  0  0  0
 25 27  1  0  0  0  0
 25 28  1  0  0  0  0
 29 30  1  0  0  0  0
 29 48  1  0  0  0  0
 30 49  1  0  0  0  0
M  END
$$$$
