CHEMBL1241674
 OpenBabel04072215363D

 39 42  0  0  0  0  0  0  0  0999 V2000
    3.9033    0.5696    0.5476 C   0  0  0  0  0  0  0  0  0  0  0  0
    2.7280   -0.1809   -0.0721 C   0  0  0  0  0  0  0  0  0  0  0  0
    1.7421    0.7796   -0.7403 C   0  0  0  0  0  0  0  0  0  0  0  0
    3.1620   -1.2211   -0.9988 N   0  0  0  0  0  0  0  0  0  0  0  0
    3.8924   -0.9134   -2.0997 N   0  0  0  0  0  0  0  0  0  0  0  0
    3.8298   -2.0364   -2.8330 C   0  0  0  0  0  0  0  0  0  0  0  0
    4.3196   -2.0201   -4.2379 C   0  0  0  0  0  0  0  0  0  0  0  0
    3.8533   -2.7658   -5.2931 C   0  0  0  0  0  0  0  0  0  0  0  0
    4.5179   -2.3214   -6.4685 C   0  0  0  0  0  0  0  0  0  0  0  0
    4.3960   -2.6478   -7.8329 C   0  0  0  0  0  0  0  0  0  0  0  0
    5.2005   -1.9748   -8.7521 C   0  0  0  0  0  0  0  0  0  0  0  0
    5.0763   -2.2099  -10.0917 O   0  0  0  0  0  0  0  0  0  0  0  0
    6.1391   -1.0334   -8.3444 C   0  0  0  0  0  0  0  0  0  0  0  0
    6.2783   -0.7002   -6.9924 C   0  0  0  0  0  0  0  0  0  0  0  0
    5.4318   -1.3412   -6.0793 C   0  0  0  0  0  0  0  0  0  0  0  0
    5.2695   -1.1584   -4.7223 N   0  0  0  0  0  0  0  0  0  0  0  0
    3.2338   -3.1143   -2.1270 C   0  0  0  0  0  0  0  0  0  0  0  0
    2.9850   -4.4847   -2.2828 C   0  0  0  0  0  0  0  0  0  0  0  0
    3.3931   -5.2566   -3.3628 N   0  0  0  0  0  0  0  0  0  0  0  0
    2.3550   -5.1467   -1.2898 N   0  0  0  0  0  0  0  0  0  0  0  0
    1.9871   -4.4641   -0.1897 C   0  0  0  0  0  0  0  0  0  0  0  0
    2.1730   -3.1626    0.0735 N   0  0  0  0  0  0  0  0  0  0  0  0
    2.8171   -2.5454   -0.9339 C   0  0  0  0  0  0  0  0  0  0  0  0
    3.5469    1.2997    1.2832 H   0  0  0  0  0  0  0  0  0  0  0  0
    4.4840    1.1090   -0.2076 H   0  0  0  0  0  0  0  0  0  0  0  0
    4.5786   -0.1224    1.0613 H   0  0  0  0  0  0  0  0  0  0  0  0
    2.1934   -0.6859    0.7419 H   0  0  0  0  0  0  0  0  0  0  0  0
    2.2108    1.3362   -1.5593 H   0  0  0  0  0  0  0  0  0  0  0  0
    1.3570    1.5060   -0.0162 H   0  0  0  0  0  0  0  0  0  0  0  0
    0.8862    0.2356   -1.1558 H   0  0  0  0  0  0  0  0  0  0  0  0
    3.0538   -3.4929   -5.2645 H   0  0  0  0  0  0  0  0  0  0  0  0
    3.6714   -3.3907   -8.1462 H   0  0  0  0  0  0  0  0  0  0  0  0
    4.2929   -2.7677  -10.2311 H   0  0  0  0  0  0  0  0  0  0  0  0
    6.7551   -0.5369   -9.0893 H   0  0  0  0  0  0  0  0  0  0  0  0
    6.9968    0.0490   -6.6773 H   0  0  0  0  0  0  0  0  0  0  0  0
    5.7618   -0.4820   -4.1549 H   0  0  0  0  0  0  0  0  0  0  0  0
    4.2552   -4.9491   -3.7960 H   0  0  0  0  0  0  0  0  0  0  0  0
    3.3517   -6.2421   -3.1256 H   0  0  0  0  0  0  0  0  0  0  0  0
    1.4863   -5.0423    0.5812 H   0  0  0  0  0  0  0  0  0  0  0  0
  1  2  1  0  0  0  0
  1 24  1  0  0  0  0
  1 25  1  0  0  0  0
  1 26  1  0  0  0  0
  2  3  1  0  0  0  0
  2  4  1  0  0  0  0
  2 27  1  0  0  0  0
  3 28  1  0  0  0  0
  3 29  1  0  0  0  0
  3 30  1  0  0  0  0
  4  5  1  0  0  0  0
  4 23  1  0  0  0  0
  5  6  2  0  0  0  0
  6  7  1  0  0  0  0
  6 17  1  0  0  0  0
  7  8  2  0  0  0  0
  7 16  1  0  0  0  0
  8  9  1  0  0  0  0
  8 31  1  0  0  0  0
  9 10  1  0  0  0  0
  9 15  2  0  0  0  0
 10 11  2  0  0  0  0
 10 32  1  0  0  0  0
 11 12  1  0  0  0  0
 11 13  1  0  0  0  0
 12 33  1  0  0  0  0
 13 14  2  0  0  0  0
 13 34  1  0  0  0  0
 14 15  1  0  0  0  0
 14 35  1  0  0  0  0
 15 16  1  0  0  0  0
 16 36  1  0  0  0  0
 17 18  1  0  0  0  0
 17 23  2  0  0  0  0
 18 19  1  0  0  0  0
 18 20  2  0  0  0  0
 19 37  1  0  0  0  0
 19 38  1  0  0  0  0
 20 21  1  0  0  0  0
 21 22  2  0  0  0  0
 21 39  1  0  0  0  0
 22 23  1  0  0  0  0
M  END
$$$$
