CHEMBL1240566
 OpenBabel04072215363D

 32 35  0  0  0  0  0  0  0  0999 V2000
    1.1298   -0.1192    0.0230 C   0  0  0  0  0  0  0  0  0  0  0  0
    2.5713   -0.1163    0.0104 N   0  0  0  0  0  0  0  0  0  0  0  0
    3.2471    1.0466   -0.0070 N   0  0  0  0  0  0  0  0  0  0  0  0
    4.5440    0.6789   -0.0676 C   0  0  0  0  0  0  0  0  0  0  0  0
    5.5921    1.7069   -0.1670 C   0  0  0  0  0  0  0  0  0  0  0  0
    6.7621    1.4645   -0.8973 C   0  0  0  0  0  0  0  0  0  0  0  0
    7.7996    2.4037   -0.9587 C   0  0  0  0  0  0  0  0  0  0  0  0
    7.6281    3.6536   -0.3423 C   0  0  0  0  0  0  0  0  0  0  0  0
    8.4311    4.8219   -0.2431 C   0  0  0  0  0  0  0  0  0  0  0  0
    7.7058    5.7691    0.4416 C   0  0  0  0  0  0  0  0  0  0  0  0
    6.5037    5.2094    0.7869 N   0  0  0  0  0  0  0  0  0  0  0  0
    6.4352    3.9124    0.3302 C   0  0  0  0  0  0  0  0  0  0  0  0
    5.4128    2.9581    0.4505 C   0  0  0  0  0  0  0  0  0  0  0  0
    4.6743   -0.7506   -0.0209 C   0  0  0  0  0  0  0  0  0  0  0  0
    5.6794   -1.7310   -0.0005 C   0  0  0  0  0  0  0  0  0  0  0  0
    7.0455   -1.4870    0.0344 N   0  0  0  0  0  0  0  0  0  0  0  0
    5.3202   -3.0322    0.0043 N   0  0  0  0  0  0  0  0  0  0  0  0
    4.0112   -3.3424    0.0063 C   0  0  0  0  0  0  0  0  0  0  0  0
    2.9663   -2.5023    0.0201 N   0  0  0  0  0  0  0  0  0  0  0  0
    3.3706   -1.2203    0.0047 C   0  0  0  0  0  0  0  0  0  0  0  0
    0.7597    0.9095    0.0294 H   0  0  0  0  0  0  0  0  0  0  0  0
    0.7901   -0.6426    0.9199 H   0  0  0  0  0  0  0  0  0  0  0  0
    0.7779   -0.6279   -0.8754 H   0  0  0  0  0  0  0  0  0  0  0  0
    6.8894    0.5373   -1.4514 H   0  0  0  0  0  0  0  0  0  0  0  0
    8.7107    2.1747   -1.5032 H   0  0  0  0  0  0  0  0  0  0  0  0
    9.4226    4.9591   -0.6542 H   0  0  0  0  0  0  0  0  0  0  0  0
    7.9374    6.7931    0.7033 H   0  0  0  0  0  0  0  0  0  0  0  0
    5.7625    5.6800    1.2870 H   0  0  0  0  0  0  0  0  0  0  0  0
    4.4952    3.1887    0.9856 H   0  0  0  0  0  0  0  0  0  0  0  0
    7.3146   -0.6634    0.5590 H   0  0  0  0  0  0  0  0  0  0  0  0
    7.5501   -2.3352    0.2668 H   0  0  0  0  0  0  0  0  0  0  0  0
    3.7753   -4.4023    0.0016 H   0  0  0  0  0  0  0  0  0  0  0  0
  1  2  1  0  0  0  0
  1 21  1  0  0  0  0
  1 22  1  0  0  0  0
  1 23  1  0  0  0  0
  2  3  1  0  0  0  0
  2 20  1  0  0  0  0
  3  4  2  0  0  0  0
  4  5  1  0  0  0  0
  4 14  1  0  0  0  0
  5  6  1  0  0  0  0
  5 13  2  0  0  0  0
  6  7  2  0  0  0  0
  6 24  1  0  0  0  0
  7  8  1  0  0  0  0
  7 25  1  0  0  0  0
  8  9  1  0  0  0  0
  8 12  2  0  0  0  0
  9 10  2  0  0  0  0
  9 26  1  0  0  0  0
 10 11  1  0  0  0  0
 10 27  1  0  0  0  0
 11 12  1  0  0  0  0
 11 28  1  0  0  0  0
 12 13  1  0  0  0  0
 13 29  1  0  0  0  0
 14 15  1  0  0  0  0
 14 20  2  0  0  0  0
 15 16  1  0  0  0  0
 15 17  2  0  0  0  0
 16 30  1  0  0  0  0
 16 31  1  0  0  0  0
 17 18  1  0  0  0  0
 18 19  2  0  0  0  0
 18 32  1  0  0  0  0
 19 20  1  0  0  0  0
M  END
$$$$
