CHEMBL24828
 OpenBabel04072215363D

 54 57  0  0  0  0  0  0  0  0999 V2000
    3.1758    0.5271   -0.9999 C   0  0  0  0  0  0  0  0  0  0  0  0
    2.7791   -0.6681   -0.3282 O   0  0  0  0  0  0  0  0  0  0  0  0
    3.4477   -1.0792    0.7922 C   0  0  0  0  0  0  0  0  0  0  0  0
    4.4901   -0.3572    1.3795 C   0  0  0  0  0  0  0  0  0  0  0  0
    5.2316   -0.8703    2.4684 C   0  0  0  0  0  0  0  0  0  0  0  0
    6.3163   -0.2208    3.0671 C   0  0  0  0  0  0  0  0  0  0  0  0
    6.6848    1.0694    2.6097 N   0  0  0  0  0  0  0  0  0  0  0  0
    7.4308    1.9912    3.3766 C   0  0  0  0  0  0  0  0  0  0  0  0
    7.2007    2.1475    4.7452 C   0  0  0  0  0  0  0  0  0  0  0  0
    7.9961    2.9977    5.5099 C   0  0  0  0  0  0  0  0  0  0  0  0
    9.0173    3.7132    4.9013 C   0  0  0  0  0  0  0  0  0  0  0  0
   10.1556    4.7902    5.9535 Br  0  0  0  0  0  0  0  0  0  0  0  0
    9.2242    3.6300    3.5230 C   0  0  0  0  0  0  0  0  0  0  0  0
    8.4209    2.7777    2.7720 C   0  0  0  0  0  0  0  0  0  0  0  0
    8.6254    2.6795    1.4484 F   0  0  0  0  0  0  0  0  0  0  0  0
    7.0107   -0.7760    4.0789 N   0  0  0  0  0  0  0  0  0  0  0  0
    6.5968   -1.9655    4.5155 C   0  0  0  0  0  0  0  0  0  0  0  0
    5.5399   -2.6401    4.0601 N   0  0  0  0  0  0  0  0  0  0  0  0
    4.8745   -2.0829    3.0430 C   0  0  0  0  0  0  0  0  0  0  0  0
    3.7800   -2.7467    2.5253 C   0  0  0  0  0  0  0  0  0  0  0  0
    3.0877   -2.3086    1.3765 C   0  0  0  0  0  0  0  0  0  0  0  0
    2.0810   -3.0747    0.7911 O   0  0  0  0  0  0  0  0  0  0  0  0
    2.0721   -4.4352    1.2608 C   0  0  0  0  0  0  0  0  0  0  0  0
    1.2271   -5.4248    0.4413 C   0  0  0  0  0  0  0  0  0  0  0  0
   -0.2840   -5.2105    0.5547 C   0  0  0  0  0  0  0  0  0  0  0  0
   -0.8123   -5.4845    1.9677 C   0  0  0  0  0  0  0  0  0  0  0  0
   -0.4264   -6.8050    2.4901 N   0  0  0  0  0  0  0  0  0  0  0  0
   -0.8276   -6.9160    3.8975 C   0  0  0  0  0  0  0  0  0  0  0  0
    1.0016   -7.1075    2.3486 C   0  0  0  0  0  0  0  0  0  0  0  0
    1.5256   -6.8574    0.9285 C   0  0  0  0  0  0  0  0  0  0  0  0
    3.2040    0.3208   -2.0744 H   0  0  0  0  0  0  0  0  0  0  0  0
    4.1672    0.9207   -0.7563 H   0  0  0  0  0  0  0  0  0  0  0  0
    2.4340    1.3119   -0.8185 H   0  0  0  0  0  0  0  0  0  0  0  0
    4.7793    0.6185    1.0131 H   0  0  0  0  0  0  0  0  0  0  0  0
    6.9910    1.0359    1.6401 H   0  0  0  0  0  0  0  0  0  0  0  0
    6.4041    1.5827    5.2301 H   0  0  0  0  0  0  0  0  0  0  0  0
    7.8143    3.0711    6.5816 H   0  0  0  0  0  0  0  0  0  0  0  0
   10.0083    4.1957    3.0303 H   0  0  0  0  0  0  0  0  0  0  0  0
    7.1734   -2.4275    5.3102 H   0  0  0  0  0  0  0  0  0  0  0  0
    3.5010   -3.6520    3.0541 H   0  0  0  0  0  0  0  0  0  0  0  0
    1.7186   -4.4310    2.2974 H   0  0  0  0  0  0  0  0  0  0  0  0
    3.0997   -4.8163    1.2219 H   0  0  0  0  0  0  0  0  0  0  0  0
    1.5124   -5.3304   -0.6132 H   0  0  0  0  0  0  0  0  0  0  0  0
   -0.7870   -5.8926   -0.1452 H   0  0  0  0  0  0  0  0  0  0  0  0
   -0.5527   -4.1940    0.2480 H   0  0  0  0  0  0  0  0  0  0  0  0
   -1.9075   -5.4329    1.9311 H   0  0  0  0  0  0  0  0  0  0  0  0
   -0.4809   -4.6846    2.6382 H   0  0  0  0  0  0  0  0  0  0  0  0
   -1.9091   -6.7902    4.0047 H   0  0  0  0  0  0  0  0  0  0  0  0
   -0.3325   -6.1589    4.5223 H   0  0  0  0  0  0  0  0  0  0  0  0
   -0.5773   -7.9023    4.3023 H   0  0  0  0  0  0  0  0  0  0  0  0
    1.1672   -8.1663    2.5879 H   0  0  0  0  0  0  0  0  0  0  0  0
    1.5981   -6.5333    3.0698 H   0  0  0  0  0  0  0  0  0  0  0  0
    1.0702   -7.5805    0.2409 H   0  0  0  0  0  0  0  0  0  0  0  0
    2.6062   -7.0481    0.9067 H   0  0  0  0  0  0  0  0  0  0  0  0
  1  2  1  0  0  0  0
  1 31  1  0  0  0  0
  1 32  1  0  0  0  0
  1 33  1  0  0  0  0
  2  3  1  0  0  0  0
  3  4  1  0  0  0  0
  3 21  2  0  0  0  0
  4  5  2  0  0  0  0
  4 34  1  0  0  0  0
  5  6  1  0  0  0  0
  5 19  1  0  0  0  0
  6  7  1  0  0  0  0
  6 16  2  0  0  0  0
  7  8  1  0  0  0  0
  7 35  1  0  0  0  0
  8  9  1  0  0  0  0
  8 14  2  0  0  0  0
  9 10  2  0  0  0  0
  9 36  1  0  0  0  0
 10 11  1  0  0  0  0
 10 37  1  0  0  0  0
 11 12  1  0  0  0  0
 11 13  2  0  0  0  0
 13 14  1  0  0  0  0
 13 38  1  0  0  0  0
 14 15  1  0  0  0  0
 16 17  1  0  0  0  0
 17 18  2  0  0  0  0
 17 39  1  0  0  0  0
 18 19  1  0  0  0  0
 19 20  2  0  0  0  0
 20 21  1  0  0  0  0
 20 40  1  0  0  0  0
 21 22  1  0  0  0  0
 22 23  1  0  0  0  0
 23 24  1  0  0  0  0
 23 41  1  0  0  0  0
 23 42  1  0  0  0  0
 24 25  1  0  0  0  0
 24 30  1  0  0  0  0
 24 43  1  0  0  0  0
 25 26  1  0  0  0  0
 25 44  1  0  0  0  0
 25 45  1  0  0  0  0
 26 27  1  0  0  0  0
 26 46  1  0  0  0  0
 26 47  1  0  0  0  0
 27 28  1  0  0  0  0
 27 29  1  0  0  0  0
 28 48  1  0  0  0  0
 28 49  1  0  0  0  0
 28 50  1  0  0  0  0
 29 30  1  0  0  0  0
 29 51  1  0  0  0  0
 29 52  1  0  0  0  0
 30 53  1  0  0  0  0
 30 54  1  0  0  0  0
M  END
$$$$
