CHEMBL3690558
 OpenBabel04072215373D

 50 53  0  0  0  0  0  0  0  0999 V2000
   -2.0932    1.1283   -1.1436 C   0  0  0  0  0  0  0  0  0  0  0  0
   -0.9864    0.3273   -0.5308 C   0  0  0  0  0  0  0  0  0  0  0  0
    0.0374    1.0022    0.0223 N   0  0  0  0  0  0  0  0  0  0  0  0
    1.0106    0.2726    0.5698 C   0  0  0  0  0  0  0  0  0  0  0  0
    2.0542    0.9659    1.1822 N   0  0  0  0  0  0  0  0  0  0  0  0
    0.9853   -1.1007    0.5978 C   0  0  0  0  0  0  0  0  0  0  0  0
   -0.1063   -1.7193    0.0195 C   0  0  0  0  0  0  0  0  0  0  0  0
   -0.2199   -3.2069    0.0152 C   0  0  0  0  0  0  0  0  0  0  0  0
    0.3726   -4.0444    1.0682 C   0  0  0  0  0  0  0  0  0  0  0  0
    0.2936   -5.3821    0.9999 C   0  0  0  0  0  0  0  0  0  0  0  0
   -0.4069   -5.9886   -0.0452 N   0  0  0  0  0  0  0  0  0  0  0  0
   -0.7027   -7.3293   -0.3035 C   0  0  0  0  0  0  0  0  0  0  0  0
   -0.4433   -8.4954    0.5631 C   0  0  0  0  0  0  0  0  0  0  0  0
   -0.4632   -8.3759    1.9581 C   0  0  0  0  0  0  0  0  0  0  0  0
   -0.2422   -9.4774    2.7777 C   0  0  0  0  0  0  0  0  0  0  0  0
   -0.0757  -10.7405    2.2189 C   0  0  0  0  0  0  0  0  0  0  0  0
   -0.1279  -10.9200    0.8362 C   0  0  0  0  0  0  0  0  0  0  0  0
   -0.0693  -12.2036    0.2311 N   0  0  0  0  0  0  0  0  0  0  0  0
   -0.0857  -13.4125    0.8951 C   0  0  0  0  0  0  0  0  0  0  0  0
   -0.1515  -13.5930    2.1032 O   0  0  0  0  0  0  0  0  0  0  0  0
    0.0364  -14.4864    0.0413 N   0  0  0  0  0  0  0  0  0  0  0  0
    0.0269  -15.8367    0.6257 C   0  0  0  0  0  0  0  0  0  0  0  0
   -1.3456  -16.3861    1.0470 C   0  0  0  0  0  0  0  0  0  0  0  0
   -2.3611  -15.6027    0.6168 F   0  0  0  0  0  0  0  0  0  0  0  0
   -1.5382  -17.6114    0.4946 F   0  0  0  0  0  0  0  0  0  0  0  0
   -1.4578  -16.5302    2.3833 F   0  0  0  0  0  0  0  0  0  0  0  0
   -0.2691   -9.7874    0.0150 C   0  0  0  0  0  0  0  0  0  0  0  0
   -1.3554   -7.2843   -1.5280 C   0  0  0  0  0  0  0  0  0  0  0  0
   -1.5181   -6.0075   -1.9907 N   0  0  0  0  0  0  0  0  0  0  0  0
   -0.9772   -5.2378   -1.0733 C   0  0  0  0  0  0  0  0  0  0  0  0
   -0.8772   -3.8148   -1.0026 C   0  0  0  0  0  0  0  0  0  0  0  0
   -1.0975   -1.0136   -0.5617 N   0  0  0  0  0  0  0  0  0  0  0  0
   -1.8764    2.2004   -1.0948 H   0  0  0  0  0  0  0  0  0  0  0  0
   -3.0281    0.9403   -0.6078 H   0  0  0  0  0  0  0  0  0  0  0  0
   -2.2219    0.8502   -2.1938 H   0  0  0  0  0  0  0  0  0  0  0  0
    1.9115    1.9570    1.0041 H   0  0  0  0  0  0  0  0  0  0  0  0
    2.9644    0.6508    0.8678 H   0  0  0  0  0  0  0  0  0  0  0  0
    1.7912   -1.6523    1.0587 H   0  0  0  0  0  0  0  0  0  0  0  0
    0.8676   -3.5728    1.9108 H   0  0  0  0  0  0  0  0  0  0  0  0
    0.7566   -6.0096    1.7471 H   0  0  0  0  0  0  0  0  0  0  0  0
   -0.6845   -7.4324    2.4460 H   0  0  0  0  0  0  0  0  0  0  0  0
   -0.2325   -9.3639    3.8587 H   0  0  0  0  0  0  0  0  0  0  0  0
    0.0743  -11.5655    2.9054 H   0  0  0  0  0  0  0  0  0  0  0  0
   -0.0573  -12.2336   -0.7758 H   0  0  0  0  0  0  0  0  0  0  0  0
   -0.3676  -14.3841   -0.8778 H   0  0  0  0  0  0  0  0  0  0  0  0
    0.6928  -15.8408    1.4976 H   0  0  0  0  0  0  0  0  0  0  0  0
    0.4750  -16.4975   -0.1224 H   0  0  0  0  0  0  0  0  0  0  0  0
   -0.2772   -9.9089   -1.0662 H   0  0  0  0  0  0  0  0  0  0  0  0
   -1.7566   -8.1206   -2.0862 H   0  0  0  0  0  0  0  0  0  0  0  0
   -1.3356   -3.2497   -1.8086 H   0  0  0  0  0  0  0  0  0  0  0  0
  1  2  1  0  0  0  0
  1 33  1  0  0  0  0
  1 34  1  0  0  0  0
  1 35  1  0  0  0  0
  2  3  1  0  0  0  0
  2 32  2  0  0  0  0
  3  4  2  0  0  0  0
  4  5  1  0  0  0  0
  4  6  1  0  0  0  0
  5 36  1  0  0  0  0
  5 37  1  0  0  0  0
  6  7  2  0  0  0  0
  6 38  1  0  0  0  0
  7  8  1  0  0  0  0
  7 32  1  0  0  0  0
  8  9  1  0  0  0  0
  8 31  2  0  0  0  0
  9 10  2  0  0  0  0
  9 39  1  0  0  0  0
 10 11  1  0  0  0  0
 10 40  1  0  0  0  0
 11 12  1  0  0  0  0
 11 30  1  0  0  0  0
 12 13  1  0  0  0  0
 12 28  2  0  0  0  0
 13 14  1  0  0  0  0
 13 27  2  0  0  0  0
 14 15  2  0  0  0  0
 14 41  1  0  0  0  0
 15 16  1  0  0  0  0
 15 42  1  0  0  0  0
 16 17  2  0  0  0  0
 16 43  1  0  0  0  0
 17 18  1  0  0  0  0
 17 27  1  0  0  0  0
 18 19  1  0  0  0  0
 18 44  1  0  0  0  0
 19 20  2  0  0  0  0
 19 21  1  0  0  0  0
 21 22  1  0  0  0  0
 21 45  1  0  0  0  0
 22 23  1  0  0  0  0
 22 46  1  0  0  0  0
 22 47  1  0  0  0  0
 23 24  1  0  0  0  0
 23 25  1  0  0  0  0
 23 26  1  0  0  0  0
 27 48  1  0  0  0  0
 28 29  1  0  0  0  0
 28 49  1  0  0  0  0
 29 30  2  0  0  0  0
 30 31  1  0  0  0  0
 31 50  1  0  0  0  0
M  END
$$$$
