CHEMBL3690565
 OpenBabel04072215373D

 63 67  0  0  0  0  0  0  0  0999 V2000
   -0.1745    0.4286    5.0295 C   0  0  0  0  0  0  0  0  0  0  0  0
    1.1819    0.2475    5.6022 N   0  0  0  0  0  0  0  0  0  0  0  0
    1.0966   -0.3279    6.9689 C   0  0  0  0  0  0  0  0  0  0  0  0
    2.2966   -0.6116    4.5946 S   0  0  0  0  0  0  0  0  0  0  0  0
    3.5312   -0.7190    5.3463 O   0  0  0  0  0  0  0  0  0  0  0  0
    1.5810   -1.7616    4.0837 O   0  0  0  0  0  0  0  0  0  0  0  0
    2.7028    0.3130    3.2396 N   0  0  0  0  0  0  0  0  0  0  0  0
    2.2870    1.6051    3.0433 C   0  0  0  0  0  0  0  0  0  0  0  0
    2.7481    1.9337    1.7959 C   0  0  0  0  0  0  0  0  0  0  0  0
    3.4777    0.9051    1.2710 N   0  0  0  0  0  0  0  0  0  0  0  0
    3.4772   -0.0815    2.1721 C   0  0  0  0  0  0  0  0  0  0  0  0
    4.1729   -1.3556    1.9494 C   0  0  0  0  0  0  0  0  0  0  0  0
    4.7104   -1.6010    0.6980 C   0  0  0  0  0  0  0  0  0  0  0  0
    5.3005   -2.8208    0.5143 C   0  0  0  0  0  0  0  0  0  0  0  0
    5.3834   -3.7385    1.4834 N   0  0  0  0  0  0  0  0  0  0  0  0
    4.8544   -3.4155    2.6811 C   0  0  0  0  0  0  0  0  0  0  0  0
    4.9131   -4.4578    3.7417 C   0  0  0  0  0  0  0  0  0  0  0  0
    4.7427   -4.1686    5.1722 C   0  0  0  0  0  0  0  0  0  0  0  0
    4.7377   -5.1725    6.0662 C   0  0  0  0  0  0  0  0  0  0  0  0
    5.0122   -6.4747    5.6433 N   0  0  0  0  0  0  0  0  0  0  0  0
    5.2585   -7.6353    6.3659 C   0  0  0  0  0  0  0  0  0  0  0  0
    5.3944   -7.7608    7.8192 C   0  0  0  0  0  0  0  0  0  0  0  0
    4.9486   -8.9234    8.4579 C   0  0  0  0  0  0  0  0  0  0  0  0
    5.1535   -9.0992    9.8232 C   0  0  0  0  0  0  0  0  0  0  0  0
    5.8145   -8.1195   10.5645 C   0  0  0  0  0  0  0  0  0  0  0  0
    6.2892   -6.9564    9.9581 C   0  0  0  0  0  0  0  0  0  0  0  0
    7.0022   -5.9493   10.6437 N   0  0  0  0  0  0  0  0  0  0  0  0
    7.4180   -6.0021   11.9559 C   0  0  0  0  0  0  0  0  0  0  0  0
    7.2593   -6.9281   12.7402 O   0  0  0  0  0  0  0  0  0  0  0  0
    8.0155   -4.8372   12.3749 N   0  0  0  0  0  0  0  0  0  0  0  0
    8.5161   -4.7814   13.7571 C   0  0  0  0  0  0  0  0  0  0  0  0
    9.8557   -5.4854   14.0279 C   0  0  0  0  0  0  0  0  0  0  0  0
   10.4457   -5.9201   12.8910 F   0  0  0  0  0  0  0  0  0  0  0  0
   10.7213   -4.6141   14.6072 F   0  0  0  0  0  0  0  0  0  0  0  0
    9.7273   -6.5344   14.8665 F   0  0  0  0  0  0  0  0  0  0  0  0
    6.0679   -6.7870    8.5810 C   0  0  0  0  0  0  0  0  0  0  0  0
    5.4705   -8.5994    5.3911 C   0  0  0  0  0  0  0  0  0  0  0  0
    5.4036   -8.0818    4.1287 N   0  0  0  0  0  0  0  0  0  0  0  0
    5.1735   -6.8001    4.3009 C   0  0  0  0  0  0  0  0  0  0  0  0
    5.0964   -5.7442    3.3531 C   0  0  0  0  0  0  0  0  0  0  0  0
    4.2553   -2.2393    2.9605 N   0  0  0  0  0  0  0  0  0  0  0  0
   -0.7400    1.1215    5.6621 H   0  0  0  0  0  0  0  0  0  0  0  0
   -0.7151   -0.5200    4.9778 H   0  0  0  0  0  0  0  0  0  0  0  0
   -0.1363    0.8707    4.0326 H   0  0  0  0  0  0  0  0  0  0  0  0
    0.5128    0.3400    7.6106 H   0  0  0  0  0  0  0  0  0  0  0  0
    2.0874   -0.4186    7.4224 H   0  0  0  0  0  0  0  0  0  0  0  0
    0.6119   -1.3091    6.9498 H   0  0  0  0  0  0  0  0  0  0  0  0
    1.7014    2.1572    3.7624 H   0  0  0  0  0  0  0  0  0  0  0  0
    2.6010    2.8568    1.2476 H   0  0  0  0  0  0  0  0  0  0  0  0
    4.6597   -0.8761   -0.1041 H   0  0  0  0  0  0  0  0  0  0  0  0
    5.7243   -3.1083   -0.4426 H   0  0  0  0  0  0  0  0  0  0  0  0
    4.6297   -3.1356    5.4870 H   0  0  0  0  0  0  0  0  0  0  0  0
    4.5602   -5.0065    7.1196 H   0  0  0  0  0  0  0  0  0  0  0  0
    4.4517   -9.7136    7.8987 H   0  0  0  0  0  0  0  0  0  0  0  0
    4.8160  -10.0070   10.3167 H   0  0  0  0  0  0  0  0  0  0  0  0
    5.9447   -8.3055   11.6252 H   0  0  0  0  0  0  0  0  0  0  0  0
    7.2568   -5.1265   10.1283 H   0  0  0  0  0  0  0  0  0  0  0  0
    8.5106   -4.2967   11.6809 H   0  0  0  0  0  0  0  0  0  0  0  0
    7.7532   -5.2105   14.4178 H   0  0  0  0  0  0  0  0  0  0  0  0
    8.5983   -3.7207   14.0122 H   0  0  0  0  0  0  0  0  0  0  0  0
    6.4649   -5.9039    8.0891 H   0  0  0  0  0  0  0  0  0  0  0  0
    5.7285   -9.6406    5.5446 H   0  0  0  0  0  0  0  0  0  0  0  0
    5.1980   -6.0261    2.3097 H   0  0  0  0  0  0  0  0  0  0  0  0
  1  2  1  0  0  0  0
  1 42  1  0  0  0  0
  1 43  1  0  0  0  0
  1 44  1  0  0  0  0
  2  3  1  0  0  0  0
  2  4  1  0  0  0  0
  3 45  1  0  0  0  0
  3 46  1  0  0  0  0
  3 47  1  0  0  0  0
  4  5  2  0  0  0  0
  4  6  2  0  0  0  0
  4  7  1  0  0  0  0
  7  8  1  0  0  0  0
  7 11  1  0  0  0  0
  8  9  2  0  0  0  0
  8 48  1  0  0  0  0
  9 10  1  0  0  0  0
  9 49  1  0  0  0  0
 10 11  2  0  0  0  0
 11 12  1  0  0  0  0
 12 13  1  0  0  0  0
 12 41  2  0  0  0  0
 13 14  2  0  0  0  0
 13 50  1  0  0  0  0
 14 15  1  0  0  0  0
 14 51  1  0  0  0  0
 15 16  2  0  0  0  0
 16 17  1  0  0  0  0
 16 41  1  0  0  0  0
 17 18  1  0  0  0  0
 17 40  2  0  0  0  0
 18 19  2  0  0  0  0
 18 52  1  0  0  0  0
 19 20  1  0  0  0  0
 19 53  1  0  0  0  0
 20 21  1  0  0  0  0
 20 39  1  0  0  0  0
 21 22  1  0  0  0  0
 21 37  2  0  0  0  0
 22 23  1  0  0  0  0
 22 36  2  0  0  0  0
 23 24  2  0  0  0  0
 23 54  1  0  0  0  0
 24 25  1  0  0  0  0
 24 55  1  0  0  0  0
 25 26  2  0  0  0  0
 25 56  1  0  0  0  0
 26 27  1  0  0  0  0
 26 36  1  0  0  0  0
 27 28  1  0  0  0  0
 27 57  1  0  0  0  0
 28 29  2  0  0  0  0
 28 30  1  0  0  0  0
 30 31  1  0  0  0  0
 30 58  1  0  0  0  0
 31 32  1  0  0  0  0
 31 59  1  0  0  0  0
 31 60  1  0  0  0  0
 32 33  1  0  0  0  0
 32 34  1  0  0  0  0
 32 35  1  0  0  0  0
 36 61  1  0  0  0  0
 37 38  1  0  0  0  0
 37 62  1  0  0  0  0
 38 39  2  0  0  0  0
 39 40  1  0  0  0  0
 40 63  1  0  0  0  0
M  END
$$$$
