CHEMBL1098120
 OpenBabel04072215363D

 73 76  0  0  1  0  0  0  0  0999 V2000
    0.9894    0.6420   -2.8818 Cl  0  0  0  0  0  0  0  0  0  0  0  0
    0.9152   -0.3133    0.6144 N   0  0  0  0  0  0  0  0  0  0  0  0
    2.3607   -0.2562    0.3940 C   0  0  3  0  0  0  0  0  0  0  0  0
    3.0573   -1.3548    1.2117 C   0  0  0  0  0  0  0  0  0  0  0  0
    4.5567   -1.4038    0.8780 C   0  0  0  0  0  0  0  0  0  0  0  0
    5.1695   -0.0304    0.9252 C   0  0  0  0  0  0  0  0  0  0  0  0
    4.4077    1.1283    0.8804 C   0  0  0  0  0  0  0  0  0  0  0  0
    5.2957    2.1779    0.9854 C   0  0  0  0  0  0  0  0  0  0  0  0
    5.0869    3.5634    1.0096 C   0  0  0  0  0  0  0  0  0  0  0  0
    6.2116    4.4084    1.1354 C   0  0  0  0  0  0  0  0  0  0  0  0
    6.0314    5.7614    1.1668 O   0  0  0  0  0  0  0  0  0  0  0  0
    7.0688    6.6709    1.2848 C   0  0  0  0  0  0  0  0  0  0  0  0
    6.5678    8.1194    1.3057 C   0  0  0  0  0  0  0  0  0  0  0  0
    7.7462    9.0684    1.3981 C   0  0  0  0  0  0  0  0  0  0  0  0
    8.0049    9.9895    0.3676 C   0  0  0  0  0  0  0  0  0  0  0  0
    9.1139   10.8406    0.4396 C   0  0  0  0  0  0  0  0  0  0  0  0
    9.9785   10.7828    1.5421 C   0  0  0  0  0  0  0  0  0  0  0  0
   11.0588   11.5866    1.6175 O   0  0  0  0  0  0  0  0  0  0  0  0
    9.7200    9.8782    2.5758 C   0  0  0  0  0  0  0  0  0  0  0  0
    8.6115    9.0290    2.5084 C   0  0  0  0  0  0  0  0  0  0  0  0
    7.5084    3.8237    1.2305 C   0  0  0  0  0  0  0  0  0  0  0  0
    7.6846    2.4334    1.1994 C   0  0  0  0  0  0  0  0  0  0  0  0
    6.5550    1.6226    1.0718 C   0  0  0  0  0  0  0  0  0  0  0  0
    6.4882    0.2671    1.0339 N   0  0  0  0  0  0  0  0  0  0  0  0
    7.6063   -0.6873    1.1609 C   0  0  0  0  0  0  0  0  0  0  0  0
    7.7171   -1.6547   -0.0257 C   0  0  0  0  0  0  0  0  0  0  0  0
    7.9554   -0.9540   -1.3664 C   0  0  0  0  0  0  0  0  0  0  0  0
    7.9821   -2.0056   -2.4825 C   0  0  0  0  0  0  0  0  0  0  0  0
    8.2578   -1.3846   -3.8544 C   0  0  0  0  0  0  0  0  0  0  0  0
    8.3217   -2.4537   -4.9198 C   0  0  0  0  0  0  0  0  0  0  0  0
    7.1965   -3.2480   -5.2129 C   0  0  0  0  0  0  0  0  0  0  0  0
    7.2696   -4.2415   -6.1949 C   0  0  0  0  0  0  0  0  0  0  0  0
    8.4616   -4.4497   -6.8930 C   0  0  0  0  0  0  0  0  0  0  0  0
    9.5819   -3.6646   -6.6122 C   0  0  0  0  0  0  0  0  0  0  0  0
    9.5145   -2.6706   -5.6315 C   0  0  0  0  0  0  0  0  0  0  0  0
    2.9080    1.1470    0.7750 C   0  0  0  0  0  0  0  0  0  0  0  0
    1.0860    1.5516   -1.8556 H   0  0  0  0  0  0  0  0  0  0  0  0
    0.5500   -1.2063    0.2098 H   0  0  0  0  0  0  0  0  0  0  0  0
    0.4454    0.4734    0.1170 H   0  0  0  0  0  0  0  0  0  0  0  0
    2.5811   -0.4507   -0.6811 H   0  0  0  0  0  0  0  0  0  0  0  0
    2.6227   -2.3547    0.9939 H   0  0  0  0  0  0  0  0  0  0  0  0
    2.9169   -1.1379    2.2938 H   0  0  0  0  0  0  0  0  0  0  0  0
    4.6870   -1.7957   -0.1526 H   0  0  0  0  0  0  0  0  0  0  0  0
    5.0472   -2.0850    1.6053 H   0  0  0  0  0  0  0  0  0  0  0  0
    4.0886    3.9752    0.9369 H   0  0  0  0  0  0  0  0  0  0  0  0
    7.7593    6.5505    0.4213 H   0  0  0  0  0  0  0  0  0  0  0  0
    7.6160    6.4653    2.2298 H   0  0  0  0  0  0  0  0  0  0  0  0
    5.8896    8.2797    2.1713 H   0  0  0  0  0  0  0  0  0  0  0  0
    5.9912    8.3090    0.3736 H   0  0  0  0  0  0  0  0  0  0  0  0
    7.3558   10.0450   -0.4970 H   0  0  0  0  0  0  0  0  0  0  0  0
    9.3041   11.5399   -0.3650 H   0  0  0  0  0  0  0  0  0  0  0  0
   11.2816   12.2170    0.9177 H   0  0  0  0  0  0  0  0  0  0  0  0
   10.3830    9.8282    3.4308 H   0  0  0  0  0  0  0  0  0  0  0  0
    8.4366    8.3348    3.3201 H   0  0  0  0  0  0  0  0  0  0  0  0
    8.3923    4.4363    1.3314 H   0  0  0  0  0  0  0  0  0  0  0  0
    8.6806    2.0253    1.2778 H   0  0  0  0  0  0  0  0  0  0  0  0
    7.4513   -1.2901    2.0822 H   0  0  0  0  0  0  0  0  0  0  0  0
    8.5732   -0.1610    1.2724 H   0  0  0  0  0  0  0  0  0  0  0  0
    6.8081   -2.2747   -0.0938 H   0  0  0  0  0  0  0  0  0  0  0  0
    8.5590   -2.3541    0.1723 H   0  0  0  0  0  0  0  0  0  0  0  0
    8.9239   -0.4083   -1.3275 H   0  0  0  0  0  0  0  0  0  0  0  0
    7.1395   -0.2260   -1.5698 H   0  0  0  0  0  0  0  0  0  0  0  0
    7.0004   -2.5285   -2.5014 H   0  0  0  0  0  0  0  0  0  0  0  0
    8.7777   -2.7510   -2.2610 H   0  0  0  0  0  0  0  0  0  0  0  0
    9.2267   -0.8412   -3.8011 H   0  0  0  0  0  0  0  0  0  0  0  0
    7.4639   -0.6508   -4.1130 H   0  0  0  0  0  0  0  0  0  0  0  0
    6.2638   -3.1005   -4.6829 H   0  0  0  0  0  0  0  0  0  0  0  0
    6.4025   -4.8508   -6.4144 H   0  0  0  0  0  0  0  0  0  0  0  0
    8.5170   -5.2197   -7.6525 H   0  0  0  0  0  0  0  0  0  0  0  0
   10.5052   -3.8264   -7.1533 H   0  0  0  0  0  0  0  0  0  0  0  0
   10.3942   -2.0741   -5.4250 H   0  0  0  0  0  0  0  0  0  0  0  0
    2.5810    1.8709   -0.0004 H   0  0  0  0  0  0  0  0  0  0  0  0
    2.5167    1.4771    1.7606 H   0  0  0  0  0  0  0  0  0  0  0  0
  1 37  1  0  0  0  0
  2  3  1  0  0  0  0
  2 38  1  0  0  0  0
  2 39  1  0  0  0  0
  3  4  1  0  0  0  0
  3 36  1  0  0  0  0
  3 40  1  0  0  0  0
  4  5  1  0  0  0  0
  4 41  1  0  0  0  0
  4 42  1  0  0  0  0
  5  6  1  0  0  0  0
  5 43  1  0  0  0  0
  5 44  1  0  0  0  0
  6  7  2  0  0  0  0
  6 24  1  0  0  0  0
  7  8  1  0  0  0  0
  7 36  1  0  0  0  0
  8  9  1  0  0  0  0
  8 23  2  0  0  0  0
  9 10  2  0  0  0  0
  9 45  1  0  0  0  0
 10 11  1  0  0  0  0
 10 21  1  0  0  0  0
 11 12  1  0  0  0  0
 12 13  1  0  0  0  0
 12 46  1  0  0  0  0
 12 47  1  0  0  0  0
 13 14  1  0  0  0  0
 13 48  1  0  0  0  0
 13 49  1  0  0  0  0
 14 15  1  0  0  0  0
 14 20  2  0  0  0  0
 15 16  2  0  0  0  0
 15 50  1  0  0  0  0
 16 17  1  0  0  0  0
 16 51  1  0  0  0  0
 17 18  1  0  0  0  0
 17 19  2  0  0  0  0
 18 52  1  0  0  0  0
 19 20  1  0  0  0  0
 19 53  1  0  0  0  0
 20 54  1  0  0  0  0
 21 22  2  0  0  0  0
 21 55  1  0  0  0  0
 22 23  1  0  0  0  0
 22 56  1  0  0  0  0
 23 24  1  0  0  0  0
 24 25  1  0  0  0  0
 25 26  1  0  0  0  0
 25 57  1  0  0  0  0
 25 58  1  0  0  0  0
 26 27  1  0  0  0  0
 26 59  1  0  0  0  0
 26 60  1  0  0  0  0
 27 28  1  0  0  0  0
 27 61  1  0  0  0  0
 27 62  1  0  0  0  0
 28 29  1  0  0  0  0
 28 63  1  0  0  0  0
 28 64  1  0  0  0  0
 29 30  1  0  0  0  0
 29 65  1  0  0  0  0
 29 66  1  0  0  0  0
 30 31  1  0  0  0  0
 30 35  2  0  0  0  0
 31 32  2  0  0  0  0
 31 67  1  0  0  0  0
 32 33  1  0  0  0  0
 32 68  1  0  0  0  0
 33 34  2  0  0  0  0
 33 69  1  0  0  0  0
 34 35  1  0  0  0  0
 34 70  1  0  0  0  0
 35 71  1  0  0  0  0
 36 72  1  0  0  0  0
 36 73  1  0  0  0  0
M  END
$$$$
