CHEMBL3690515
 OpenBabel04072215373D

 47 50  0  0  0  0  0  0  0  0999 V2000
    3.4697   -6.6416    1.4133 C   0  0  0  0  0  0  0  0  0  0  0  0
    4.0044   -5.2681    1.0692 C   0  0  0  0  0  0  0  0  0  0  0  0
    4.8803   -5.2714   -0.0881 N   0  0  0  0  0  0  0  0  0  0  0  0
    5.3812   -4.0480   -0.4944 C   0  0  0  0  0  0  0  0  0  0  0  0
    5.0766   -3.0048    0.0763 O   0  0  0  0  0  0  0  0  0  0  0  0
    6.1933   -4.1630   -1.6008 N   0  0  0  0  0  0  0  0  0  0  0  0
    6.8894   -3.0948   -2.2150 C   0  0  0  0  0  0  0  0  0  0  0  0
    7.1532   -1.8900   -1.5622 C   0  0  0  0  0  0  0  0  0  0  0  0
    7.8174   -0.8571   -2.2203 C   0  0  0  0  0  0  0  0  0  0  0  0
    8.2702   -1.0378   -3.5252 C   0  0  0  0  0  0  0  0  0  0  0  0
    8.0674   -2.2534   -4.1929 C   0  0  0  0  0  0  0  0  0  0  0  0
    8.5960   -2.4177   -5.5553 C   0  0  0  0  0  0  0  0  0  0  0  0
    8.7387   -1.4710   -6.5609 C   0  0  0  0  0  0  0  0  0  0  0  0
    9.2887   -1.9951   -7.6987 N   0  0  0  0  0  0  0  0  0  0  0  0
    9.5021   -3.2613   -7.4226 C   0  0  0  0  0  0  0  0  0  0  0  0
   10.0336   -4.3064   -8.2357 C   0  0  0  0  0  0  0  0  0  0  0  0
   10.1573   -5.5703   -7.7607 C   0  0  0  0  0  0  0  0  0  0  0  0
   10.6564   -6.6570   -8.6475 C   0  0  0  0  0  0  0  0  0  0  0  0
   10.6713   -7.9024   -8.1242 N   0  0  0  0  0  0  0  0  0  0  0  0
   11.1041   -8.8879   -8.9335 C   0  0  0  0  0  0  0  0  0  0  0  0
   11.5117   -8.6719  -10.2236 C   0  0  0  0  0  0  0  0  0  0  0  0
   11.9236   -9.6828  -10.9995 F   0  0  0  0  0  0  0  0  0  0  0  0
   11.4532   -7.3677  -10.6802 C   0  0  0  0  0  0  0  0  0  0  0  0
   11.9014   -7.0301  -11.9589 N   0  0  0  0  0  0  0  0  0  0  0  0
   11.0340   -6.3517   -9.9065 N   0  0  0  0  0  0  0  0  0  0  0  0
    9.7871   -5.8335   -6.3603 C   0  0  0  0  0  0  0  0  0  0  0  0
    9.3093   -4.8497   -5.5848 C   0  0  0  0  0  0  0  0  0  0  0  0
    9.1286   -3.5740   -6.1164 N   0  0  0  0  0  0  0  0  0  0  0  0
    7.3419   -3.2624   -3.5321 C   0  0  0  0  0  0  0  0  0  0  0  0
    2.7556   -6.5670    2.2403 H   0  0  0  0  0  0  0  0  0  0  0  0
    4.2796   -7.3094    1.7229 H   0  0  0  0  0  0  0  0  0  0  0  0
    2.9605   -7.0965    0.5585 H   0  0  0  0  0  0  0  0  0  0  0  0
    4.5600   -4.8557    1.9193 H   0  0  0  0  0  0  0  0  0  0  0  0
    3.1707   -4.5886    0.8558 H   0  0  0  0  0  0  0  0  0  0  0  0
    5.5251   -6.0439   -0.1760 H   0  0  0  0  0  0  0  0  0  0  0  0
    6.0744   -5.0105   -2.1357 H   0  0  0  0  0  0  0  0  0  0  0  0
    6.8511   -1.7220   -0.5327 H   0  0  0  0  0  0  0  0  0  0  0  0
    7.9854    0.0870   -1.7087 H   0  0  0  0  0  0  0  0  0  0  0  0
    8.7940   -0.2155   -4.0077 H   0  0  0  0  0  0  0  0  0  0  0  0
    8.4602   -0.4250   -6.5200 H   0  0  0  0  0  0  0  0  0  0  0  0
   10.3139   -4.0389   -9.2501 H   0  0  0  0  0  0  0  0  0  0  0  0
   11.1142   -9.8839   -8.5048 H   0  0  0  0  0  0  0  0  0  0  0  0
   11.5476   -7.6538  -12.6759 H   0  0  0  0  0  0  0  0  0  0  0  0
   11.6945   -6.0515  -12.1368 H   0  0  0  0  0  0  0  0  0  0  0  0
    9.9183   -6.8368   -5.9661 H   0  0  0  0  0  0  0  0  0  0  0  0
    9.0596   -5.0209   -4.5488 H   0  0  0  0  0  0  0  0  0  0  0  0
    7.0929   -4.1794   -4.0572 H   0  0  0  0  0  0  0  0  0  0  0  0
  1  2  1  0  0  0  0
  1 30  1  0  0  0  0
  1 31  1  0  0  0  0
  1 32  1  0  0  0  0
  2  3  1  0  0  0  0
  2 33  1  0  0  0  0
  2 34  1  0  0  0  0
  3  4  1  0  0  0  0
  3 35  1  0  0  0  0
  4  5  2  0  0  0  0
  4  6  1  0  0  0  0
  6  7  1  0  0  0  0
  6 36  1  0  0  0  0
  7  8  1  0  0  0  0
  7 29  2  0  0  0  0
  8  9  2  0  0  0  0
  8 37  1  0  0  0  0
  9 10  1  0  0  0  0
  9 38  1  0  0  0  0
 10 11  2  0  0  0  0
 10 39  1  0  0  0  0
 11 12  1  0  0  0  0
 11 29  1  0  0  0  0
 12 13  2  0  0  0  0
 12 28  1  0  0  0  0
 13 14  1  0  0  0  0
 13 40  1  0  0  0  0
 14 15  2  0  0  0  0
 15 16  1  0  0  0  0
 15 28  1  0  0  0  0
 16 17  2  0  0  0  0
 16 41  1  0  0  0  0
 17 18  1  0  0  0  0
 17 26  1  0  0  0  0
 18 19  1  0  0  0  0
 18 25  2  0  0  0  0
 19 20  2  0  0  0  0
 20 21  1  0  0  0  0
 20 42  1  0  0  0  0
 21 22  1  0  0  0  0
 21 23  2  0  0  0  0
 23 24  1  0  0  0  0
 23 25  1  0  0  0  0
 24 43  1  0  0  0  0
 24 44  1  0  0  0  0
 26 27  2  0  0  0  0
 26 45  1  0  0  0  0
 27 28  1  0  0  0  0
 27 46  1  0  0  0  0
 29 47  1  0  0  0  0
M  END
$$$$
