CHEMBL1162958
 OpenBabel04072215363D

 43 46  0  0  0  0  0  0  0  0999 V2000
    2.2000    4.7731   -0.4740 C   0  0  0  0  0  0  0  0  0  0  0  0
    3.5335    4.2385   -0.4740 N   0  0  0  0  0  0  0  0  0  0  0  0
    3.7894    2.9402   -0.8556 C   0  0  0  0  0  0  0  0  0  0  0  0
    2.9249    2.1629   -1.2459 O   0  0  0  0  0  0  0  0  0  0  0  0
    5.2294    2.5338   -0.7870 C   0  0  0  0  0  0  0  0  0  0  0  0
    5.5851    1.2612   -1.2027 C   0  0  0  0  0  0  0  0  0  0  0  0
    6.9402    0.9579   -1.2832 C   0  0  0  0  0  0  0  0  0  0  0  0
    7.4417   -0.2255   -1.7811 O   0  0  0  0  0  0  0  0  0  0  0  0
    6.7423   -0.8878   -2.7716 C   0  0  0  0  0  0  0  0  0  0  0  0
    6.0495   -0.2280   -3.8035 C   0  0  0  0  0  0  0  0  0  0  0  0
    5.2667   -0.9327   -4.7256 C   0  0  0  0  0  0  0  0  0  0  0  0
    5.2907   -2.3129   -4.5946 C   0  0  0  0  0  0  0  0  0  0  0  0
    4.6128   -3.2270   -5.3437 O   0  0  0  0  0  0  0  0  0  0  0  0
    5.0349   -4.4357   -4.8546 C   0  0  0  0  0  0  0  0  0  0  0  0
    4.5247   -5.5052   -5.4900 N   0  0  0  0  0  0  0  0  0  0  0  0
    5.1597   -6.7484   -5.6766 C   0  0  0  0  0  0  0  0  0  0  0  0
    6.4419   -7.0426   -5.1933 C   0  0  0  0  0  0  0  0  0  0  0  0
    7.0261   -8.2970   -5.4010 C   0  0  0  0  0  0  0  0  0  0  0  0
    6.3191   -9.2855   -6.0772 C   0  0  0  0  0  0  0  0  0  0  0  0
    7.0412  -10.8207   -6.3469 Cl  0  0  0  0  0  0  0  0  0  0  0  0
    5.0295   -9.0309   -6.5340 C   0  0  0  0  0  0  0  0  0  0  0  0
    4.4527   -7.7738   -6.3260 C   0  0  0  0  0  0  0  0  0  0  0  0
    5.8806   -4.3485   -3.8470 N   0  0  0  0  0  0  0  0  0  0  0  0
    6.0385   -3.0036   -3.6573 C   0  0  0  0  0  0  0  0  0  0  0  0
    6.7875   -2.2878   -2.7159 C   0  0  0  0  0  0  0  0  0  0  0  0
    7.8758    1.8784   -0.8216 C   0  0  0  0  0  0  0  0  0  0  0  0
    7.4216    3.1087   -0.3738 C   0  0  0  0  0  0  0  0  0  0  0  0
    6.1210    3.4756   -0.3683 N   0  0  0  0  0  0  0  0  0  0  0  0
    2.2315    5.8073   -0.1257 H   0  0  0  0  0  0  0  0  0  0  0  0
    1.5735    4.1714    0.1904 H   0  0  0  0  0  0  0  0  0  0  0  0
    1.7919    4.7294   -1.4877 H   0  0  0  0  0  0  0  0  0  0  0  0
    4.3297    4.8015   -0.1870 H   0  0  0  0  0  0  0  0  0  0  0  0
    4.8163    0.5552   -1.4971 H   0  0  0  0  0  0  0  0  0  0  0  0
    6.0798    0.8563   -3.8818 H   0  0  0  0  0  0  0  0  0  0  0  0
    4.6794   -0.4356   -5.4871 H   0  0  0  0  0  0  0  0  0  0  0  0
    3.8047   -5.3064   -6.1716 H   0  0  0  0  0  0  0  0  0  0  0  0
    7.0273   -6.2966   -4.6630 H   0  0  0  0  0  0  0  0  0  0  0  0
    8.0313   -8.4847   -5.0356 H   0  0  0  0  0  0  0  0  0  0  0  0
    4.4668   -9.8041   -7.0499 H   0  0  0  0  0  0  0  0  0  0  0  0
    3.4400   -7.5996   -6.6837 H   0  0  0  0  0  0  0  0  0  0  0  0
    7.3631   -2.8083   -1.9587 H   0  0  0  0  0  0  0  0  0  0  0  0
    8.9354    1.6460   -0.8240 H   0  0  0  0  0  0  0  0  0  0  0  0
    8.1190    3.8588   -0.0098 H   0  0  0  0  0  0  0  0  0  0  0  0
  1  2  1  0  0  0  0
  1 29  1  0  0  0  0
  1 30  1  0  0  0  0
  1 31  1  0  0  0  0
  2  3  1  0  0  0  0
  2 32  1  0  0  0  0
  3  4  2  0  0  0  0
  3  5  1  0  0  0  0
  5  6  1  0  0  0  0
  5 28  2  0  0  0  0
  6  7  2  0  0  0  0
  6 33  1  0  0  0  0
  7  8  1  0  0  0  0
  7 26  1  0  0  0  0
  8  9  1  0  0  0  0
  9 10  1  0  0  0  0
  9 25  2  0  0  0  0
 10 11  2  0  0  0  0
 10 34  1  0  0  0  0
 11 12  1  0  0  0  0
 11 35  1  0  0  0  0
 12 13  1  0  0  0  0
 12 24  2  0  0  0  0
 13 14  1  0  0  0  0
 14 15  1  0  0  0  0
 14 23  2  0  0  0  0
 15 16  1  0  0  0  0
 15 36  1  0  0  0  0
 16 17  1  0  0  0  0
 16 22  2  0  0  0  0
 17 18  2  0  0  0  0
 17 37  1  0  0  0  0
 18 19  1  0  0  0  0
 18 38  1  0  0  0  0
 19 20  1  0  0  0  0
 19 21  2  0  0  0  0
 21 22  1  0  0  0  0
 21 39  1  0  0  0  0
 22 40  1  0  0  0  0
 23 24  1  0  0  0  0
 24 25  1  0  0  0  0
 25 41  1  0  0  0  0
 26 27  2  0  0  0  0
 26 42  1  0  0  0  0
 27 28  1  0  0  0  0
 27 43  1  0  0  0  0
M  END
$$$$
