CHEMBL3906996
 OpenBabel04072215373D

 64 69  0  0  0  0  0  0  0  0999 V2000
    0.9557   -0.1570    0.0521 C   0  0  0  0  0  0  0  0  0  0  0  0
    2.4203   -0.1111   -0.0182 N   0  0  0  0  0  0  0  0  0  0  0  0
    3.1852   -1.1184    0.6121 C   0  0  0  0  0  0  0  0  0  0  0  0
    2.6988   -1.8849    1.6862 C   0  0  0  0  0  0  0  0  0  0  0  0
    3.4299   -2.9489    2.2148 C   0  0  0  0  0  0  0  0  0  0  0  0
    4.6690   -3.2760    1.6774 C   0  0  0  0  0  0  0  0  0  0  0  0
    5.1975   -2.5388    0.6175 C   0  0  0  0  0  0  0  0  0  0  0  0
    6.4178   -2.8812   -0.0204 N   0  0  0  0  0  0  0  0  0  0  0  0
    7.0185   -4.1278    0.0577 C   0  0  0  0  0  0  0  0  0  0  0  0
    6.5726   -5.1023    0.6586 O   0  0  0  0  0  0  0  0  0  0  0  0
    8.2886   -4.3337   -0.6936 C   0  0  0  0  0  0  0  0  0  0  0  0
    9.1984   -3.3102   -0.9699 C   0  0  0  0  0  0  0  0  0  0  0  0
   10.4233   -3.6153   -1.5741 C   0  0  0  0  0  0  0  0  0  0  0  0
   10.7494   -4.9420   -1.8905 C   0  0  0  0  0  0  0  0  0  0  0  0
    9.8493   -5.9791   -1.6184 C   0  0  0  0  0  0  0  0  0  0  0  0
   10.1820   -7.4248   -1.8910 C   0  0  0  0  0  0  0  0  0  0  0  0
   11.4474   -7.6124   -2.3591 F   0  0  0  0  0  0  0  0  0  0  0  0
   10.0806   -8.2000   -0.7758 F   0  0  0  0  0  0  0  0  0  0  0  0
    9.3543   -7.9865   -2.8143 F   0  0  0  0  0  0  0  0  0  0  0  0
    8.6141   -5.6564   -1.0379 C   0  0  0  0  0  0  0  0  0  0  0  0
    4.4756   -1.4357    0.1330 C   0  0  0  0  0  0  0  0  0  0  0  0
    2.9125    1.0538   -0.6633 C   0  0  0  0  0  0  0  0  0  0  0  0
    2.4770    1.4538   -1.9447 C   0  0  0  0  0  0  0  0  0  0  0  0
    2.9634    2.6208   -2.5851 C   0  0  0  0  0  0  0  0  0  0  0  0
    3.7662    3.4962   -1.8288 C   0  0  0  0  0  0  0  0  0  0  0  0
    4.4825    4.7414   -1.9522 C   0  0  0  0  0  0  0  0  0  0  0  0
    5.8172    4.9674   -2.5036 C   0  0  0  0  0  0  0  0  0  0  0  0
    6.7011    3.9640   -2.6816 C   0  0  0  0  0  0  0  0  0  0  0  0
    8.1258    4.0264   -2.2646 C   0  0  0  0  0  0  0  0  0  0  0  0
    8.5103    4.6583   -1.0531 C   0  0  0  0  0  0  0  0  0  0  0  0
    9.7900    4.4626   -0.4977 C   0  0  0  0  0  0  0  0  0  0  0  0
   10.6514    3.6304   -1.1762 C   0  0  0  0  0  0  0  0  0  0  0  0
   10.2939    3.0236   -2.3530 C   0  0  0  0  0  0  0  0  0  0  0  0
    9.0467    3.2059   -2.9254 C   0  0  0  0  0  0  0  0  0  0  0  0
   11.2707    2.2097   -2.8386 O   0  0  0  0  0  0  0  0  0  0  0  0
   12.2788    2.3643   -1.8179 C   0  0  0  0  0  0  0  0  0  0  0  0
   11.8958    3.2651   -0.7607 O   0  0  0  0  0  0  0  0  0  0  0  0
    4.3190    5.3779   -0.7720 N   0  0  0  0  0  0  0  0  0  0  0  0
    4.3478    4.3423    0.0883 N   0  0  0  0  0  0  0  0  0  0  0  0
    3.9895    3.1617   -0.4960 C   0  0  0  0  0  0  0  0  0  0  0  0
    3.7686    1.8931    0.0521 C   0  0  0  0  0  0  0  0  0  0  0  0
    0.5549   -0.9684    0.6649 H   0  0  0  0  0  0  0  0  0  0  0  0
    0.5285   -0.3114   -0.9437 H   0  0  0  0  0  0  0  0  0  0  0  0
    0.5570    0.7767    0.4681 H   0  0  0  0  0  0  0  0  0  0  0  0
    1.7423   -1.6723    2.1516 H   0  0  0  0  0  0  0  0  0  0  0  0
    3.0267   -3.5409    3.0331 H   0  0  0  0  0  0  0  0  0  0  0  0
    5.2004   -4.1148    2.1146 H   0  0  0  0  0  0  0  0  0  0  0  0
    6.7543   -2.2331   -0.7202 H   0  0  0  0  0  0  0  0  0  0  0  0
    9.0016   -2.2816   -0.6827 H   0  0  0  0  0  0  0  0  0  0  0  0
   11.1445   -2.8277   -1.7723 H   0  0  0  0  0  0  0  0  0  0  0  0
   11.7217   -5.1627   -2.3302 H   0  0  0  0  0  0  0  0  0  0  0  0
    7.9060   -6.4579   -0.8180 H   0  0  0  0  0  0  0  0  0  0  0  0
    4.8795   -0.8572   -0.6935 H   0  0  0  0  0  0  0  0  0  0  0  0
    1.7440    0.8477   -2.4718 H   0  0  0  0  0  0  0  0  0  0  0  0
    2.6073    2.8885   -3.5745 H   0  0  0  0  0  0  0  0  0  0  0  0
    6.2009    5.9652   -2.2972 H   0  0  0  0  0  0  0  0  0  0  0  0
    6.3463    2.9484   -2.8400 H   0  0  0  0  0  0  0  0  0  0  0  0
    7.7986    5.2585   -0.4878 H   0  0  0  0  0  0  0  0  0  0  0  0
   10.0678    4.9068    0.4480 H   0  0  0  0  0  0  0  0  0  0  0  0
    8.7804    2.6783   -3.8330 H   0  0  0  0  0  0  0  0  0  0  0  0
   13.1949    2.7452   -2.2871 H   0  0  0  0  0  0  0  0  0  0  0  0
   12.4917    1.3792   -1.3860 H   0  0  0  0  0  0  0  0  0  0  0  0
    4.4783    4.5415    1.0666 H   0  0  0  0  0  0  0  0  0  0  0  0
    4.0943    1.6564    1.0538 H   0  0  0  0  0  0  0  0  0  0  0  0
  1  2  1  0  0  0  0
  1 42  1  0  0  0  0
  1 43  1  0  0  0  0
  1 44  1  0  0  0  0
  2  3  1  0  0  0  0
  2 22  1  0  0  0  0
  3  4  1  0  0  0  0
  3 21  2  0  0  0  0
  4  5  2  0  0  0  0
  4 45  1  0  0  0  0
  5  6  1  0  0  0  0
  5 46  1  0  0  0  0
  6  7  2  0  0  0  0
  6 47  1  0  0  0  0
  7  8  1  0  0  0  0
  7 21  1  0  0  0  0
  8  9  1  0  0  0  0
  8 48  1  0  0  0  0
  9 10  2  0  0  0  0
  9 11  1  0  0  0  0
 11 12  1  0  0  0  0
 11 20  2  0  0  0  0
 12 13  2  0  0  0  0
 12 49  1  0  0  0  0
 13 14  1  0  0  0  0
 13 50  1  0  0  0  0
 14 15  2  0  0  0  0
 14 51  1  0  0  0  0
 15 16  1  0  0  0  0
 15 20  1  0  0  0  0
 16 17  1  0  0  0  0
 16 18  1  0  0  0  0
 16 19  1  0  0  0  0
 20 52  1  0  0  0  0
 21 53  1  0  0  0  0
 22 23  1  0  0  0  0
 22 41  2  0  0  0  0
 23 24  2  0  0  0  0
 23 54  1  0  0  0  0
 24 25  1  0  0  0  0
 24 55  1  0  0  0  0
 25 26  1  0  0  0  0
 25 40  2  0  0  0  0
 26 27  1  0  0  0  0
 26 38  2  0  0  0  0
 27 28  2  0  0  0  0
 27 56  1  0  0  0  0
 28 29  1  0  0  0  0
 28 57  1  0  0  0  0
 29 30  1  0  0  0  0
 29 34  2  0  0  0  0
 30 31  2  0  0  0  0
 30 58  1  0  0  0  0
 31 32  1  0  0  0  0
 31 59  1  0  0  0  0
 32 33  2  0  0  0  0
 32 37  1  0  0  0  0
 33 34  1  0  0  0  0
 33 35  1  0  0  0  0
 34 60  1  0  0  0  0
 35 36  1  0  0  0  0
 36 37  1  0  0  0  0
 36 61  1  0  0  0  0
 36 62  1  0  0  0  0
 38 39  1  0  0  0  0
 39 40  1  0  0  0  0
 39 63  1  0  0  0  0
 40 41  1  0  0  0  0
 41 64  1  0  0  0  0
M  END
$$$$
