CHEMBL198036
 OpenBabel04072215363D

 50 53  0  0  0  0  0  0  0  0999 V2000
    2.5844   -0.3907   -1.1047 C   0  0  0  0  0  0  0  0  0  0  0  0
    1.1136   -0.2445   -0.8476 C   0  0  0  0  0  0  0  0  0  0  0  0
    0.5125    1.0130   -0.8958 C   0  0  0  0  0  0  0  0  0  0  0  0
   -0.8467    1.1335   -0.6478 C   0  0  0  0  0  0  0  0  0  0  0  0
   -1.6041   -0.0016   -0.3451 C   0  0  0  0  0  0  0  0  0  0  0  0
   -1.0490   -1.2959   -0.3214 C   0  0  0  0  0  0  0  0  0  0  0  0
   -1.8691   -2.4702   -0.0537 N   0  0  0  0  0  0  0  0  0  0  0  0
   -1.2248   -3.7043    0.3841 C   0  0  0  0  0  0  0  0  0  0  0  0
   -3.2535   -2.4360   -0.3250 C   0  0  0  0  0  0  0  0  0  0  0  0
   -3.7863   -1.4773   -0.8824 O   0  0  0  0  0  0  0  0  0  0  0  0
   -3.9801   -3.5646    0.0465 N   0  0  0  0  0  0  0  0  0  0  0  0
   -5.3812   -3.7228   -0.1311 C   0  0  0  0  0  0  0  0  0  0  0  0
   -6.1578   -2.8227   -0.8518 C   0  0  0  0  0  0  0  0  0  0  0  0
   -7.5516   -2.8898   -0.8387 C   0  0  0  0  0  0  0  0  0  0  0  0
   -8.2168   -3.9534   -0.2313 C   0  0  0  0  0  0  0  0  0  0  0  0
   -9.6926   -3.9824   -0.2056 C   0  0  0  0  0  0  0  0  0  0  0  0
  -10.4530   -3.5874   -1.3115 C   0  0  0  0  0  0  0  0  0  0  0  0
  -10.0799   -3.1306   -2.6933 C   0  0  0  0  0  0  0  0  0  0  0  0
  -12.1345   -3.6326   -0.9824 S   0  0  0  0  0  0  0  0  0  0  0  0
  -11.8889   -4.2024    0.5897 C   0  0  0  0  0  0  0  0  0  0  0  0
  -12.9593   -4.4472    1.3629 N   0  0  0  0  0  0  0  0  0  0  0  0
  -12.6242   -4.8828    2.5724 C   0  0  0  0  0  0  0  0  0  0  0  0
  -11.3893   -5.0623    3.0524 N   0  0  0  0  0  0  0  0  0  0  0  0
  -10.3373   -4.7878    2.2575 C   0  0  0  0  0  0  0  0  0  0  0  0
   -9.1018   -4.9602    2.8718 N   0  0  0  0  0  0  0  0  0  0  0  0
  -10.5511   -4.3476    0.9292 C   0  0  0  0  0  0  0  0  0  0  0  0
   -7.4304   -4.9441    0.3722 C   0  0  0  0  0  0  0  0  0  0  0  0
   -6.0311   -4.8059    0.4697 C   0  0  0  0  0  0  0  0  0  0  0  0
    0.3296   -1.3851   -0.5735 C   0  0  0  0  0  0  0  0  0  0  0  0
    3.0595    0.5818   -1.2727 H   0  0  0  0  0  0  0  0  0  0  0  0
    2.7521   -1.0067   -1.9934 H   0  0  0  0  0  0  0  0  0  0  0  0
    3.0727   -0.8549   -0.2422 H   0  0  0  0  0  0  0  0  0  0  0  0
    1.0913    1.9031   -1.1263 H   0  0  0  0  0  0  0  0  0  0  0  0
   -1.3294    2.1064   -0.6874 H   0  0  0  0  0  0  0  0  0  0  0  0
   -2.6510    0.1783   -0.1175 H   0  0  0  0  0  0  0  0  0  0  0  0
   -0.1507   -3.6227    0.5433 H   0  0  0  0  0  0  0  0  0  0  0  0
   -1.4255   -4.4918   -0.3498 H   0  0  0  0  0  0  0  0  0  0  0  0
   -1.6541   -4.0007    1.3469 H   0  0  0  0  0  0  0  0  0  0  0  0
   -3.5369   -4.2491    0.6341 H   0  0  0  0  0  0  0  0  0  0  0  0
   -5.7302   -2.0135   -1.4326 H   0  0  0  0  0  0  0  0  0  0  0  0
   -8.0835   -2.0801   -1.3207 H   0  0  0  0  0  0  0  0  0  0  0  0
   -9.0288   -3.2992   -2.9388 H   0  0  0  0  0  0  0  0  0  0  0  0
  -10.2802   -2.0543   -2.7987 H   0  0  0  0  0  0  0  0  0  0  0  0
  -10.6617   -3.6594   -3.4509 H   0  0  0  0  0  0  0  0  0  0  0  0
  -13.4420   -5.1106    3.2480 H   0  0  0  0  0  0  0  0  0  0  0  0
   -9.2423   -5.0884    3.8689 H   0  0  0  0  0  0  0  0  0  0  0  0
   -8.4272   -4.2458    2.6264 H   0  0  0  0  0  0  0  0  0  0  0  0
   -7.8953   -5.8195    0.8222 H   0  0  0  0  0  0  0  0  0  0  0  0
   -5.4774   -5.5485    1.0373 H   0  0  0  0  0  0  0  0  0  0  0  0
    0.8351   -2.3438   -0.6145 H   0  0  0  0  0  0  0  0  0  0  0  0
  1  2  1  0  0  0  0
  1 30  1  0  0  0  0
  1 31  1  0  0  0  0
  1 32  1  0  0  0  0
  2  3  1  0  0  0  0
  2 29  2  0  0  0  0
  3  4  2  0  0  0  0
  3 33  1  0  0  0  0
  4  5  1  0  0  0  0
  4 34  1  0  0  0  0
  5  6  2  0  0  0  0
  5 35  1  0  0  0  0
  6  7  1  0  0  0  0
  6 29  1  0  0  0  0
  7  8  1  0  0  0  0
  7  9  1  0  0  0  0
  8 36  1  0  0  0  0
  8 37  1  0  0  0  0
  8 38  1  0  0  0  0
  9 10  2  0  0  0  0
  9 11  1  0  0  0  0
 11 12  1  0  0  0  0
 11 39  1  0  0  0  0
 12 13  1  0  0  0  0
 12 28  2  0  0  0  0
 13 14  2  0  0  0  0
 13 40  1  0  0  0  0
 14 15  1  0  0  0  0
 14 41  1  0  0  0  0
 15 16  1  0  0  0  0
 15 27  2  0  0  0  0
 16 17  2  0  0  0  0
 16 26  1  0  0  0  0
 17 18  1  0  0  0  0
 17 19  1  0  0  0  0
 18 42  1  0  0  0  0
 18 43  1  0  0  0  0
 18 44  1  0  0  0  0
 19 20  1  0  0  0  0
 20 21  1  0  0  0  0
 20 26  2  0  0  0  0
 21 22  2  0  0  0  0
 22 23  1  0  0  0  0
 22 45  1  0  0  0  0
 23 24  2  0  0  0  0
 24 25  1  0  0  0  0
 24 26  1  0  0  0  0
 25 46  1  0  0  0  0
 25 47  1  0  0  0  0
 27 28  1  0  0  0  0
 27 48  1  0  0  0  0
 28 49  1  0  0  0  0
 29 50  1  0  0  0  0
M  END
$$$$
