CHEMBL4556899
 OpenBabel04072215383D

 47 50  0  0  0  0  0  0  0  0999 V2000
    2.9809    0.1716    1.2169 C   0  0  0  0  0  0  0  0  0  0  0  0
    2.5421    0.1379   -0.1395 O   0  0  0  0  0  0  0  0  0  0  0  0
    3.1442   -0.8928   -0.8306 C   0  0  0  0  0  0  0  0  0  0  0  0
    3.2015   -0.7815   -2.2074 C   0  0  0  0  0  0  0  0  0  0  0  0
    3.8426   -1.7918   -2.9229 C   0  0  0  0  0  0  0  0  0  0  0  0
    4.4028   -2.8944   -2.2584 C   0  0  0  0  0  0  0  0  0  0  0  0
    5.0979   -3.9856   -2.9697 C   0  0  0  0  0  0  0  0  0  0  0  0
    5.8323   -3.7510   -4.1440 C   0  0  0  0  0  0  0  0  0  0  0  0
    6.4816   -4.7904   -4.8206 C   0  0  0  0  0  0  0  0  0  0  0  0
    6.4269   -6.1011   -4.3280 C   0  0  0  0  0  0  0  0  0  0  0  0
    7.0960   -7.2371   -5.0471 C   0  0  0  0  0  0  0  0  0  0  0  0
    8.4674   -7.4310   -4.6136 N   0  0  0  0  0  0  0  0  0  0  0  0
    9.5895   -6.8787   -5.1559 C   0  0  0  0  0  0  0  0  0  0  0  0
   10.6191   -7.5703   -4.5561 C   0  0  0  0  0  0  0  0  0  0  0  0
   12.0286   -7.4312   -4.8596 C   0  0  0  0  0  0  0  0  0  0  0  0
   12.8814   -8.5346   -4.7321 C   0  0  0  0  0  0  0  0  0  0  0  0
   14.2334   -8.4262   -5.0646 C   0  0  0  0  0  0  0  0  0  0  0  0
   14.7451   -7.2147   -5.5298 C   0  0  0  0  0  0  0  0  0  0  0  0
   13.9105   -6.1012   -5.6673 C   0  0  0  0  0  0  0  0  0  0  0  0
   14.4374   -4.7979   -6.1899 C   0  0  0  0  0  0  0  0  0  0  0  0
   12.5571   -6.2149   -5.3171 C   0  0  0  0  0  0  0  0  0  0  0  0
   10.0962   -8.4831   -3.6774 N   0  0  0  0  0  0  0  0  0  0  0  0
    8.7724   -8.3855   -3.7152 N   0  0  0  0  0  0  0  0  0  0  0  0
    5.7210   -6.3425   -3.1459 C   0  0  0  0  0  0  0  0  0  0  0  0
    5.0594   -5.3059   -2.4849 C   0  0  0  0  0  0  0  0  0  0  0  0
    4.2604   -2.8975   -0.8686 C   0  0  0  0  0  0  0  0  0  0  0  0
    3.6435   -1.9367   -0.1438 N   0  0  0  0  0  0  0  0  0  0  0  0
    2.5813    1.0782    1.6785 H   0  0  0  0  0  0  0  0  0  0  0  0
    4.0739    0.2221    1.2740 H   0  0  0  0  0  0  0  0  0  0  0  0
    2.6000   -0.6891    1.7805 H   0  0  0  0  0  0  0  0  0  0  0  0
    2.7780    0.0792   -2.7097 H   0  0  0  0  0  0  0  0  0  0  0  0
    3.8942   -1.7068   -4.0039 H   0  0  0  0  0  0  0  0  0  0  0  0
    5.9194   -2.7446   -4.5502 H   0  0  0  0  0  0  0  0  0  0  0  0
    7.0273   -4.5627   -5.7328 H   0  0  0  0  0  0  0  0  0  0  0  0
    7.1098   -7.0579   -6.1288 H   0  0  0  0  0  0  0  0  0  0  0  0
    6.5527   -8.1753   -4.8882 H   0  0  0  0  0  0  0  0  0  0  0  0
    9.5576   -6.1201   -5.9218 H   0  0  0  0  0  0  0  0  0  0  0  0
   12.4931   -9.4919   -4.3895 H   0  0  0  0  0  0  0  0  0  0  0  0
   14.8850   -9.2907   -4.9691 H   0  0  0  0  0  0  0  0  0  0  0  0
   15.7998   -7.1486   -5.7881 H   0  0  0  0  0  0  0  0  0  0  0  0
   15.4867   -4.8809   -6.4907 H   0  0  0  0  0  0  0  0  0  0  0  0
   14.3626   -4.0220   -5.4218 H   0  0  0  0  0  0  0  0  0  0  0  0
   13.8635   -4.4896   -7.0704 H   0  0  0  0  0  0  0  0  0  0  0  0
   11.9158   -5.3403   -5.4041 H   0  0  0  0  0  0  0  0  0  0  0  0
    5.6743   -7.3474   -2.7271 H   0  0  0  0  0  0  0  0  0  0  0  0
    4.4995   -5.5568   -1.5890 H   0  0  0  0  0  0  0  0  0  0  0  0
    4.6698   -3.6979   -0.2573 H   0  0  0  0  0  0  0  0  0  0  0  0
  1  2  1  0  0  0  0
  1 28  1  0  0  0  0
  1 29  1  0  0  0  0
  1 30  1  0  0  0  0
  2  3  1  0  0  0  0
  3  4  1  0  0  0  0
  3 27  2  0  0  0  0
  4  5  2  0  0  0  0
  4 31  1  0  0  0  0
  5  6  1  0  0  0  0
  5 32  1  0  0  0  0
  6  7  1  0  0  0  0
  6 26  2  0  0  0  0
  7  8  1  0  0  0  0
  7 25  2  0  0  0  0
  8  9  2  0  0  0  0
  8 33  1  0  0  0  0
  9 10  1  0  0  0  0
  9 34  1  0  0  0  0
 10 11  1  0  0  0  0
 10 24  2  0  0  0  0
 11 12  1  0  0  0  0
 11 35  1  0  0  0  0
 11 36  1  0  0  0  0
 12 13  1  0  0  0  0
 12 23  1  0  0  0  0
 13 14  2  0  0  0  0
 13 37  1  0  0  0  0
 14 15  1  0  0  0  0
 14 22  1  0  0  0  0
 15 16  1  0  0  0  0
 15 21  2  0  0  0  0
 16 17  2  0  0  0  0
 16 38  1  0  0  0  0
 17 18  1  0  0  0  0
 17 39  1  0  0  0  0
 18 19  2  0  0  0  0
 18 40  1  0  0  0  0
 19 20  1  0  0  0  0
 19 21  1  0  0  0  0
 20 41  1  0  0  0  0
 20 42  1  0  0  0  0
 20 43  1  0  0  0  0
 21 44  1  0  0  0  0
 22 23  2  0  0  0  0
 24 25  1  0  0  0  0
 24 45  1  0  0  0  0
 25 46  1  0  0  0  0
 26 27  1  0  0  0  0
 26 47  1  0  0  0  0
M  END
$$$$
