CHEMBL2016920
 OpenBabel04072215363D

 54 58  0  0  0  0  0  0  0  0999 V2000
    1.2548    0.2806    0.3314 O   0  0  0  0  0  0  0  0  0  0  0  0
    2.3796   -0.0443   -0.0638 C   0  0  0  0  0  0  0  0  0  0  0  0
    3.0054   -1.3636    0.4264 C   0  0  0  0  0  0  0  0  0  0  0  0
    4.1743   -1.1247    1.3042 N   0  0  0  0  0  0  0  0  0  0  0  0
    3.7694   -0.4266    2.5401 C   0  0  0  0  0  0  0  0  0  0  0  0
    4.9779   -0.1572    3.4392 C   0  0  0  0  0  0  0  0  0  0  0  0
    5.7095   -1.4494    3.7796 C   0  0  0  0  0  0  0  0  0  0  0  0
    6.0546   -2.2088    2.5047 C   0  0  0  0  0  0  0  0  0  0  0  0
    4.8190   -2.4083    1.6260 C   0  0  0  0  0  0  0  0  0  0  0  0
    3.1104    0.7563   -0.9558 N   0  0  0  0  0  0  0  0  0  0  0  0
    2.4234    1.9963   -1.3881 C   0  0  0  0  0  0  0  0  0  0  0  0
    3.1635    2.9861   -2.3084 C   0  0  0  0  0  0  0  0  0  0  0  0
    4.1942    2.3019   -3.0994 C   0  0  0  0  0  0  0  0  0  0  0  0
    4.8781    2.8420   -4.1524 N   0  0  0  0  0  0  0  0  0  0  0  0
    5.7549    1.9175   -4.5208 C   0  0  0  0  0  0  0  0  0  0  0  0
    6.7789    1.9467   -5.5176 C   0  0  0  0  0  0  0  0  0  0  0  0
    6.8815    3.0408   -6.2959 C   0  0  0  0  0  0  0  0  0  0  0  0
    7.9520    3.1545   -7.2915 C   0  0  0  0  0  0  0  0  0  0  0  0
    8.0731    4.2866   -8.0998 C   0  0  0  0  0  0  0  0  0  0  0  0
    9.1213    4.3635   -9.0196 C   0  0  0  0  0  0  0  0  0  0  0  0
    9.2749    5.7569  -10.0211 Cl  0  0  0  0  0  0  0  0  0  0  0  0
   10.0463    3.3262   -9.1337 C   0  0  0  0  0  0  0  0  0  0  0  0
    9.9253    2.1943   -8.3300 C   0  0  0  0  0  0  0  0  0  0  0  0
    8.8745    2.1133   -7.4193 C   0  0  0  0  0  0  0  0  0  0  0  0
    8.7426    0.9748   -6.6208 N   0  0  0  0  0  0  0  0  0  0  0  0
    7.7420    0.8119   -5.6939 C   0  0  0  0  0  0  0  0  0  0  0  0
    7.6596   -0.2250   -5.0374 O   0  0  0  0  0  0  0  0  0  0  0  0
    5.6098    0.7885   -3.7354 N   0  0  0  0  0  0  0  0  0  0  0  0
    4.6220    1.0339   -2.8287 C   0  0  0  0  0  0  0  0  0  0  0  0
    4.1279    0.1140   -1.7988 C   0  0  0  0  0  0  0  0  0  0  0  0
    3.2905   -1.9614   -0.4462 H   0  0  0  0  0  0  0  0  0  0  0  0
    2.2293   -1.9368    0.9502 H   0  0  0  0  0  0  0  0  0  0  0  0
    3.0239   -1.0137    3.0931 H   0  0  0  0  0  0  0  0  0  0  0  0
    3.3124    0.5411    2.3046 H   0  0  0  0  0  0  0  0  0  0  0  0
    4.6526    0.3380    4.3610 H   0  0  0  0  0  0  0  0  0  0  0  0
    5.6663    0.5310    2.9320 H   0  0  0  0  0  0  0  0  0  0  0  0
    5.0730   -2.0737    4.4188 H   0  0  0  0  0  0  0  0  0  0  0  0
    6.6205   -1.2301    4.3470 H   0  0  0  0  0  0  0  0  0  0  0  0
    6.4886   -3.1820    2.7599 H   0  0  0  0  0  0  0  0  0  0  0  0
    6.8179   -1.6544    1.9442 H   0  0  0  0  0  0  0  0  0  0  0  0
    4.1149   -3.0837    2.1301 H   0  0  0  0  0  0  0  0  0  0  0  0
    5.1382   -2.9025    0.7004 H   0  0  0  0  0  0  0  0  0  0  0  0
    2.1262    2.5368   -0.4782 H   0  0  0  0  0  0  0  0  0  0  0  0
    1.4918    1.6855   -1.8760 H   0  0  0  0  0  0  0  0  0  0  0  0
    3.6376    3.7736   -1.7115 H   0  0  0  0  0  0  0  0  0  0  0  0
    2.4369    3.4770   -2.9662 H   0  0  0  0  0  0  0  0  0  0  0  0
    6.1979    3.8777   -6.1853 H   0  0  0  0  0  0  0  0  0  0  0  0
    7.3635    5.1067   -8.0168 H   0  0  0  0  0  0  0  0  0  0  0  0
   10.8636    3.3984   -9.8511 H   0  0  0  0  0  0  0  0  0  0  0  0
   10.6502    1.3908   -8.4262 H   0  0  0  0  0  0  0  0  0  0  0  0
    9.3844    0.2082   -6.7087 H   0  0  0  0  0  0  0  0  0  0  0  0
    6.1755   -0.0501   -3.8237 H   0  0  0  0  0  0  0  0  0  0  0  0
    4.9491   -0.2347   -1.1651 H   0  0  0  0  0  0  0  0  0  0  0  0
    3.6658   -0.7535   -2.2833 H   0  0  0  0  0  0  0  0  0  0  0  0
  1  2  2  0  0  0  0
  2  3  1  0  0  0  0
  2 10  1  0  0  0  0
  3  4  1  0  0  0  0
  3 31  1  0  0  0  0
  3 32  1  0  0  0  0
  4  5  1  0  0  0  0
  4  9  1  0  0  0  0
  5  6  1  0  0  0  0
  5 33  1  0  0  0  0
  5 34  1  0  0  0  0
  6  7  1  0  0  0  0
  6 35  1  0  0  0  0
  6 36  1  0  0  0  0
  7  8  1  0  0  0  0
  7 37  1  0  0  0  0
  7 38  1  0  0  0  0
  8  9  1  0  0  0  0
  8 39  1  0  0  0  0
  8 40  1  0  0  0  0
  9 41  1  0  0  0  0
  9 42  1  0  0  0  0
 10 11  1  0  0  0  0
 10 30  1  0  0  0  0
 11 12  1  0  0  0  0
 11 43  1  0  0  0  0
 11 44  1  0  0  0  0
 12 13  1  0  0  0  0
 12 45  1  0  0  0  0
 12 46  1  0  0  0  0
 13 14  1  0  0  0  0
 13 29  2  0  0  0  0
 14 15  2  0  0  0  0
 15 16  1  0  0  0  0
 15 28  1  0  0  0  0
 16 17  2  0  0  0  0
 16 26  1  0  0  0  0
 17 18  1  0  0  0  0
 17 47  1  0  0  0  0
 18 19  1  0  0  0  0
 18 24  2  0  0  0  0
 19 20  2  0  0  0  0
 19 48  1  0  0  0  0
 20 21  1  0  0  0  0
 20 22  1  0  0  0  0
 22 23  2  0  0  0  0
 22 49  1  0  0  0  0
 23 24  1  0  0  0  0
 23 50  1  0  0  0  0
 24 25  1  0  0  0  0
 25 26  1  0  0  0  0
 25 51  1  0  0  0  0
 26 27  2  0  0  0  0
 28 29  1  0  0  0  0
 28 52  1  0  0  0  0
 29 30  1  0  0  0  0
 30 53  1  0  0  0  0
 30 54  1  0  0  0  0
M  END
$$$$
