CHEMBL25450
 OpenBabel04072215363D

 51 54  0  0  0  0  0  0  0  0999 V2000
    2.4610    0.2853    1.1406 C   0  0  0  0  0  0  0  0  0  0  0  0
    2.4271    0.1096   -0.2742 O   0  0  0  0  0  0  0  0  0  0  0  0
    3.0818   -0.9547   -0.8270 C   0  0  0  0  0  0  0  0  0  0  0  0
    4.1691   -1.5366   -0.1777 C   0  0  0  0  0  0  0  0  0  0  0  0
    4.7915   -2.6942   -0.6798 C   0  0  0  0  0  0  0  0  0  0  0  0
    5.8112   -3.3729   -0.0022 C   0  0  0  0  0  0  0  0  0  0  0  0
    6.1581   -2.9622    1.3168 N   0  0  0  0  0  0  0  0  0  0  0  0
    7.3769   -3.3398    1.9350 C   0  0  0  0  0  0  0  0  0  0  0  0
    8.6027   -3.1935    1.2829 C   0  0  0  0  0  0  0  0  0  0  0  0
    8.6687   -2.5855    0.0862 F   0  0  0  0  0  0  0  0  0  0  0  0
    9.7891   -3.6560    1.8474 C   0  0  0  0  0  0  0  0  0  0  0  0
    9.7529   -4.2456    3.1038 C   0  0  0  0  0  0  0  0  0  0  0  0
   11.2025   -4.8783    3.7821 Cl  0  0  0  0  0  0  0  0  0  0  0  0
    8.5591   -4.3356    3.8141 C   0  0  0  0  0  0  0  0  0  0  0  0
    7.3850   -3.8703    3.2291 C   0  0  0  0  0  0  0  0  0  0  0  0
    6.2347   -3.9673    3.9128 F   0  0  0  0  0  0  0  0  0  0  0  0
    6.4238   -4.4454   -0.5290 N   0  0  0  0  0  0  0  0  0  0  0  0
    6.0053   -4.8326   -1.7375 C   0  0  0  0  0  0  0  0  0  0  0  0
    5.0125   -4.2812   -2.4502 N   0  0  0  0  0  0  0  0  0  0  0  0
    4.4076   -3.2120   -1.9178 C   0  0  0  0  0  0  0  0  0  0  0  0
    3.3672   -2.5798   -2.5992 C   0  0  0  0  0  0  0  0  0  0  0  0
    2.6909   -1.4583   -2.0797 C   0  0  0  0  0  0  0  0  0  0  0  0
    1.6902   -0.9917   -2.9120 O   0  0  0  0  0  0  0  0  0  0  0  0
    1.0086    0.1834   -2.4822 C   0  0  0  0  0  0  0  0  0  0  0  0
   -0.0434    0.6796   -3.4904 C   0  0  0  0  0  0  0  0  0  0  0  0
    0.5465    1.0733   -4.8526 C   0  0  0  0  0  0  0  0  0  0  0  0
    1.3668    2.3621   -4.7796 C   0  0  0  0  0  0  0  0  0  0  0  0
    0.5871    3.4727   -4.2257 N   0  0  0  0  0  0  0  0  0  0  0  0
    0.0816    3.1576   -2.8898 C   0  0  0  0  0  0  0  0  0  0  0  0
   -0.7824    1.8924   -2.8904 C   0  0  0  0  0  0  0  0  0  0  0  0
    3.0453    1.1813    1.3671 H   0  0  0  0  0  0  0  0  0  0  0  0
    2.8522   -0.5659    1.7072 H   0  0  0  0  0  0  0  0  0  0  0  0
    1.4357    0.4412    1.4845 H   0  0  0  0  0  0  0  0  0  0  0  0
    4.5770   -1.0871    0.7195 H   0  0  0  0  0  0  0  0  0  0  0  0
    5.3626   -3.1346    1.9309 H   0  0  0  0  0  0  0  0  0  0  0  0
   10.7140   -3.5460    1.2930 H   0  0  0  0  0  0  0  0  0  0  0  0
    8.5264   -4.7774    4.8055 H   0  0  0  0  0  0  0  0  0  0  0  0
    6.5151   -5.6836   -2.1768 H   0  0  0  0  0  0  0  0  0  0  0  0
    3.0691   -2.9760   -3.5677 H   0  0  0  0  0  0  0  0  0  0  0  0
    1.7404    0.9796   -2.3154 H   0  0  0  0  0  0  0  0  0  0  0  0
    0.4705   -0.0519   -1.5556 H   0  0  0  0  0  0  0  0  0  0  0  0
   -0.7600   -0.1345   -3.6582 H   0  0  0  0  0  0  0  0  0  0  0  0
   -0.2810    1.2273   -5.5597 H   0  0  0  0  0  0  0  0  0  0  0  0
    1.1572    0.2622   -5.2632 H   0  0  0  0  0  0  0  0  0  0  0  0
    1.6967    2.6386   -5.7873 H   0  0  0  0  0  0  0  0  0  0  0  0
    2.2778    2.2122   -4.1894 H   0  0  0  0  0  0  0  0  0  0  0  0
   -0.2040    3.6594   -4.8425 H   0  0  0  0  0  0  0  0  0  0  0  0
   -0.5156    4.0030   -2.5304 H   0  0  0  0  0  0  0  0  0  0  0  0
    0.9197    3.0630   -2.1893 H   0  0  0  0  0  0  0  0  0  0  0  0
   -1.6957    2.0811   -3.4681 H   0  0  0  0  0  0  0  0  0  0  0  0
   -1.1030    1.6727   -1.8645 H   0  0  0  0  0  0  0  0  0  0  0  0
  1  2  1  0  0  0  0
  1 31  1  0  0  0  0
  1 32  1  0  0  0  0
  1 33  1  0  0  0  0
  2  3  1  0  0  0  0
  3  4  1  0  0  0  0
  3 22  2  0  0  0  0
  4  5  2  0  0  0  0
  4 34  1  0  0  0  0
  5  6  1  0  0  0  0
  5 20  1  0  0  0  0
  6  7  1  0  0  0  0
  6 17  2  0  0  0  0
  7  8  1  0  0  0  0
  7 35  1  0  0  0  0
  8  9  1  0  0  0  0
  8 15  2  0  0  0  0
  9 10  1  0  0  0  0
  9 11  2  0  0  0  0
 11 12  1  0  0  0  0
 11 36  1  0  0  0  0
 12 13  1  0  0  0  0
 12 14  2  0  0  0  0
 14 15  1  0  0  0  0
 14 37  1  0  0  0  0
 15 16  1  0  0  0  0
 17 18  1  0  0  0  0
 18 19  2  0  0  0  0
 18 38  1  0  0  0  0
 19 20  1  0  0  0  0
 20 21  2  0  0  0  0
 21 22  1  0  0  0  0
 21 39  1  0  0  0  0
 22 23  1  0  0  0  0
 23 24  1  0  0  0  0
 24 25  1  0  0  0  0
 24 40  1  0  0  0  0
 24 41  1  0  0  0  0
 25 26  1  0  0  0  0
 25 30  1  0  0  0  0
 25 42  1  0  0  0  0
 26 27  1  0  0  0  0
 26 43  1  0  0  0  0
 26 44  1  0  0  0  0
 27 28  1  0  0  0  0
 27 45  1  0  0  0  0
 27 46  1  0  0  0  0
 28 29  1  0  0  0  0
 28 47  1  0  0  0  0
 29 30  1  0  0  0  0
 29 48  1  0  0  0  0
 29 49  1  0  0  0  0
 30 50  1  0  0  0  0
 30 51  1  0  0  0  0
M  END
$$$$
