CHEMBL1650545
 OpenBabel04072215363D

 49 52  0  0  0  0  0  0  0  0999 V2000
    1.1524   -0.2393    0.8166 C   0  0  0  0  0  0  0  0  0  0  0  0
    2.6323   -0.1525    0.6261 C   0  0  0  0  0  0  0  0  0  0  0  0
    3.2770    1.0870    0.5010 C   0  0  0  0  0  0  0  0  0  0  0  0
    4.6254    1.0866    0.3015 N   0  0  0  0  0  0  0  0  0  0  0  0
    5.4935    2.0962    0.1089 C   0  0  0  0  0  0  0  0  0  0  0  0
    5.1876    3.5469    0.1098 C   0  0  0  0  0  0  0  0  0  0  0  0
    4.1642    4.2105    0.7675 C   0  0  0  0  0  0  0  0  0  0  0  0
    4.2495    5.5248    0.4929 N   0  0  0  0  0  0  0  0  0  0  0  0
    5.2852    5.7080   -0.3109 N   0  0  0  0  0  0  0  0  0  0  0  0
    5.8864    4.5308   -0.5522 C   0  0  0  0  0  0  0  0  0  0  0  0
    6.7418    1.5292   -0.1180 C   0  0  0  0  0  0  0  0  0  0  0  0
    6.6496    0.1798   -0.0274 N   0  0  0  0  0  0  0  0  0  0  0  0
    5.3399   -0.0499    0.2210 C   0  0  0  0  0  0  0  0  0  0  0  0
    4.7198   -1.2949    0.3565 C   0  0  0  0  0  0  0  0  0  0  0  0
    5.4553   -2.5141    0.3512 N   0  0  0  0  0  0  0  0  0  0  0  0
    4.8322   -3.7944    0.3896 C   0  0  0  0  0  0  0  0  0  0  0  0
    5.4183   -4.9718    0.8304 C   0  0  0  0  0  0  0  0  0  0  0  0
    4.5224   -6.0701    0.7975 C   0  0  0  0  0  0  0  0  0  0  0  0
    4.8915   -7.4323    1.3100 C   0  0  0  0  0  0  0  0  0  0  0  0
    4.7238   -8.4690    0.2808 N   0  0  0  0  0  0  0  0  0  0  0  0
    5.0073   -9.8329    0.7809 C   0  0  0  0  0  0  0  0  0  0  0  0
    6.0030  -10.4579   -0.1959 C   0  0  0  0  0  0  0  0  0  0  0  0
    5.7069   -9.6971   -1.4661 C   0  0  0  0  0  0  0  0  0  0  0  0
    6.7122   -9.8090   -2.4102 F   0  0  0  0  0  0  0  0  0  0  0  0
    4.4988  -10.1123   -2.0058 F   0  0  0  0  0  0  0  0  0  0  0  0
    5.5715   -8.2935   -0.9063 C   0  0  0  0  0  0  0  0  0  0  0  0
    3.2779   -5.8071    0.3176 N   0  0  0  0  0  0  0  0  0  0  0  0
    3.2662   -4.1873   -0.0449 S   0  0  0  0  0  0  0  0  0  0  0  0
    3.3664   -1.2977    0.5537 N   0  0  0  0  0  0  0  0  0  0  0  0
    1.5459    0.9505   -2.5569 Cl  0  0  0  0  0  0  0  0  0  0  0  0
    0.6870    0.7689    0.8589 H   0  0  0  0  0  0  0  0  0  0  0  0
    0.9310   -0.7761    1.7621 H   0  0  0  0  0  0  0  0  0  0  0  0
    0.7054   -0.7992   -0.0327 H   0  0  0  0  0  0  0  0  0  0  0  0
    2.7041    1.9931    0.5351 H   0  0  0  0  0  0  0  0  0  0  0  0
    3.4252    3.7918    1.4322 H   0  0  0  0  0  0  0  0  0  0  0  0
    5.5708    6.6377   -0.6917 H   0  0  0  0  0  0  0  0  0  0  0  0
    6.7553    4.4032   -1.1852 H   0  0  0  0  0  0  0  0  0  0  0  0
    7.6634    2.0617   -0.3129 H   0  0  0  0  0  0  0  0  0  0  0  0
    6.4822   -2.4690    0.4392 H   0  0  0  0  0  0  0  0  0  0  0  0
    6.4313   -5.0310    1.2032 H   0  0  0  0  0  0  0  0  0  0  0  0
    4.2022   -7.6562    2.1544 H   0  0  0  0  0  0  0  0  0  0  0  0
    5.9319   -7.4353    1.7048 H   0  0  0  0  0  0  0  0  0  0  0  0
    4.0499  -10.3940    0.7422 H   0  0  0  0  0  0  0  0  0  0  0  0
    5.4019   -9.8791    1.8226 H   0  0  0  0  0  0  0  0  0  0  0  0
    5.9465  -11.5658   -0.2692 H   0  0  0  0  0  0  0  0  0  0  0  0
    7.0321  -10.1783    0.1257 H   0  0  0  0  0  0  0  0  0  0  0  0
    5.1293   -7.5841   -1.6375 H   0  0  0  0  0  0  0  0  0  0  0  0
    6.5805   -7.9223   -0.6035 H   0  0  0  0  0  0  0  0  0  0  0  0
    2.1182   -0.2363   -2.1595 H   0  0  0  0  0  0  0  0  0  0  0  0
  1  2  1  0  0  0  0
  1 31  1  0  0  0  0
  1 32  1  0  0  0  0
  1 33  1  0  0  0  0
  2  3  2  0  0  0  0
  2 29  1  0  0  0  0
  3  4  1  0  0  0  0
  3 34  1  0  0  0  0
  4  5  1  0  0  0  0
  4 13  1  0  0  0  0
  5  6  1  0  0  0  0
  5 11  2  0  0  0  0
  6  7  1  0  0  0  0
  6 10  2  0  0  0  0
  7  8  2  0  0  0  0
  7 35  1  0  0  0  0
  8  9  1  0  0  0  0
  9 10  1  0  0  0  0
  9 36  1  0  0  0  0
 10 37  1  0  0  0  0
 11 12  1  0  0  0  0
 11 38  1  0  0  0  0
 12 13  2  0  0  0  0
 13 14  1  0  0  0  0
 14 15  1  0  0  0  0
 14 29  2  0  0  0  0
 15 16  1  0  0  0  0
 15 39  1  0  0  0  0
 16 17  2  0  0  0  0
 16 28  1  0  0  0  0
 17 18  1  0  0  0  0
 17 40  1  0  0  0  0
 18 19  1  0  0  0  0
 18 27  2  0  0  0  0
 19 20  1  0  0  0  0
 19 41  1  0  0  0  0
 19 42  1  0  0  0  0
 20 21  1  0  0  0  0
 20 26  1  0  0  0  0
 21 22  1  0  0  0  0
 21 43  1  0  0  0  0
 21 44  1  0  0  0  0
 22 23  1  0  0  0  0
 22 45  1  0  0  0  0
 22 46  1  0  0  0  0
 23 24  1  0  0  0  0
 23 25  1  0  0  0  0
 23 26  1  0  0  0  0
 26 47  1  0  0  0  0
 26 48  1  0  0  0  0
 27 28  1  0  0  0  0
 30 49  1  0  0  0  0
M  END
$$$$
