CHEMBL3890126
 OpenBabel04072215373D

 55 58  0  0  0  0  0  0  0  0999 V2000
    1.1580    1.1121    1.2970 C   0  0  0  0  0  0  0  0  0  0  0  0
    2.6595    1.2234    1.5197 C   0  0  0  0  0  0  0  0  0  0  0  0
    3.4570    1.3675    0.2145 C   0  0  0  0  0  0  0  0  0  0  0  0
    4.9254    1.5854    0.5022 N   0  0  0  0  0  0  0  0  0  0  0  0
    5.6791    0.4330    0.1085 C   0  0  0  0  0  0  0  0  0  0  0  0
    6.8124    0.4941   -0.7205 C   0  0  0  0  0  0  0  0  0  0  0  0
    7.4647   -0.6884   -1.1291 C   0  0  0  0  0  0  0  0  0  0  0  0
    8.5563   -0.7873   -1.9500 O   0  0  0  0  0  0  0  0  0  0  0  0
    9.0782    0.4088   -2.5022 C   0  0  0  0  0  0  0  0  0  0  0  0
    7.0076   -1.9375   -0.6951 C   0  0  0  0  0  0  0  0  0  0  0  0
    5.8950   -2.0177    0.1226 C   0  0  0  0  0  0  0  0  0  0  0  0
    5.3632   -3.1858    0.5941 O   0  0  0  0  0  0  0  0  0  0  0  0
    6.3469   -4.0881    1.0947 C   0  0  0  0  0  0  0  0  0  0  0  0
    5.2274   -0.8525    0.4831 C   0  0  0  0  0  0  0  0  0  0  0  0
    5.3461    2.9158    0.8162 C   0  0  0  0  0  0  0  0  0  0  0  0
    4.4665    3.9668    0.5651 C   0  0  0  0  0  0  0  0  0  0  0  0
    4.8466    5.3010    0.6650 C   0  0  0  0  0  0  0  0  0  0  0  0
    6.0456    5.6646    1.1542 C   0  0  0  0  0  0  0  0  0  0  0  0
    6.2196    6.9780    1.1013 N   0  0  0  0  0  0  0  0  0  0  0  0
    7.2588    7.4530    1.7820 C   0  0  0  0  0  0  0  0  0  0  0  0
    8.0730    6.6364    2.5416 C   0  0  0  0  0  0  0  0  0  0  0  0
    8.9073    7.3506    3.5031 C   0  0  0  0  0  0  0  0  0  0  0  0
    8.6955    7.5759    4.8888 C   0  0  0  0  0  0  0  0  0  0  0  0
    9.4840    8.5367    5.3896 N   0  0  0  0  0  0  0  0  0  0  0  0
   10.1922    8.9477    4.3248 N   0  0  0  0  0  0  0  0  0  0  0  0
   11.3158    9.8413    4.4833 C   0  0  0  0  0  0  0  0  0  0  0  0
    9.7779    8.3741    3.1556 C   0  0  0  0  0  0  0  0  0  0  0  0
    7.9588    5.2576    2.4949 N   0  0  0  0  0  0  0  0  0  0  0  0
    6.9166    4.7149    1.7260 C   0  0  0  0  0  0  0  0  0  0  0  0
    6.5745    3.3123    1.4389 C   0  0  0  0  0  0  0  0  0  0  0  0
    0.6576    0.9019    2.2488 H   0  0  0  0  0  0  0  0  0  0  0  0
    0.9107    0.3031    0.6025 H   0  0  0  0  0  0  0  0  0  0  0  0
    0.7484    2.0472    0.9042 H   0  0  0  0  0  0  0  0  0  0  0  0
    2.9889    0.3292    2.0574 H   0  0  0  0  0  0  0  0  0  0  0  0
    2.8550    2.0687    2.1856 H   0  0  0  0  0  0  0  0  0  0  0  0
    3.0377    2.1511   -0.4269 H   0  0  0  0  0  0  0  0  0  0  0  0
    3.2829    0.4829   -0.4153 H   0  0  0  0  0  0  0  0  0  0  0  0
    7.1394    1.4608   -1.0857 H   0  0  0  0  0  0  0  0  0  0  0  0
    9.9781    0.1428   -3.0668 H   0  0  0  0  0  0  0  0  0  0  0  0
    9.3738    1.1122   -1.7192 H   0  0  0  0  0  0  0  0  0  0  0  0
    8.3653    0.8579   -3.2000 H   0  0  0  0  0  0  0  0  0  0  0  0
    7.5240   -2.8360   -1.0203 H   0  0  0  0  0  0  0  0  0  0  0  0
    5.8665   -4.7248    1.8439 H   0  0  0  0  0  0  0  0  0  0  0  0
    7.1764   -3.5671    1.5874 H   0  0  0  0  0  0  0  0  0  0  0  0
    6.7157   -4.7266    0.2870 H   0  0  0  0  0  0  0  0  0  0  0  0
    4.3345   -0.9771    1.0857 H   0  0  0  0  0  0  0  0  0  0  0  0
    3.4354    3.8325    0.2781 H   0  0  0  0  0  0  0  0  0  0  0  0
    4.1258    6.0614    0.3662 H   0  0  0  0  0  0  0  0  0  0  0  0
    7.3663    8.5312    1.7569 H   0  0  0  0  0  0  0  0  0  0  0  0
    7.9626    7.1214    5.5437 H   0  0  0  0  0  0  0  0  0  0  0  0
   11.4336   10.1128    5.5356 H   0  0  0  0  0  0  0  0  0  0  0  0
   11.1587   10.7364    3.8765 H   0  0  0  0  0  0  0  0  0  0  0  0
   12.2044    9.3036    4.1413 H   0  0  0  0  0  0  0  0  0  0  0  0
   10.1309    8.7385    2.2005 H   0  0  0  0  0  0  0  0  0  0  0  0
    7.2760    2.5452    1.7664 H   0  0  0  0  0  0  0  0  0  0  0  0
  1  2  1  0  0  0  0
  1 31  1  0  0  0  0
  1 32  1  0  0  0  0
  1 33  1  0  0  0  0
  2  3  1  0  0  0  0
  2 34  1  0  0  0  0
  2 35  1  0  0  0  0
  3  4  1  0  0  0  0
  3 36  1  0  0  0  0
  3 37  1  0  0  0  0
  4  5  1  0  0  0  0
  4 15  1  0  0  0  0
  5  6  1  0  0  0  0
  5 14  2  0  0  0  0
  6  7  2  0  0  0  0
  6 38  1  0  0  0  0
  7  8  1  0  0  0  0
  7 10  1  0  0  0  0
  8  9  1  0  0  0  0
  9 39  1  0  0  0  0
  9 40  1  0  0  0  0
  9 41  1  0  0  0  0
 10 11  2  0  0  0  0
 10 42  1  0  0  0  0
 11 12  1  0  0  0  0
 11 14  1  0  0  0  0
 12 13  1  0  0  0  0
 13 43  1  0  0  0  0
 13 44  1  0  0  0  0
 13 45  1  0  0  0  0
 14 46  1  0  0  0  0
 15 16  1  0  0  0  0
 15 30  2  0  0  0  0
 16 17  2  0  0  0  0
 16 47  1  0  0  0  0
 17 18  1  0  0  0  0
 17 48  1  0  0  0  0
 18 19  1  0  0  0  0
 18 29  2  0  0  0  0
 19 20  2  0  0  0  0
 20 21  1  0  0  0  0
 20 49  1  0  0  0  0
 21 22  1  0  0  0  0
 21 28  2  0  0  0  0
 22 23  1  0  0  0  0
 22 27  2  0  0  0  0
 23 24  2  0  0  0  0
 23 50  1  0  0  0  0
 24 25  1  0  0  0  0
 25 26  1  0  0  0  0
 25 27  1  0  0  0  0
 26 51  1  0  0  0  0
 26 52  1  0  0  0  0
 26 53  1  0  0  0  0
 27 54  1  0  0  0  0
 28 29  1  0  0  0  0
 29 30  1  0  0  0  0
 30 55  1  0  0  0  0
M  END
$$$$
