CHEMBL1969502
 OpenBabel04072215363D

 42 46  0  0  1  0  0  0  0  0999 V2000
    7.4696    0.6438   -5.9486 O   0  0  0  0  0  0  0  0  0  0  0  0
    6.6125    0.5099   -5.0683 C   0  0  0  0  0  0  0  0  0  0  0  0
    6.8109    1.1780   -3.8777 N   0  0  0  0  0  0  0  0  0  0  0  0
    6.1363    1.3504   -2.7118 N   0  0  0  0  0  0  0  0  0  0  0  0
    4.9773    0.8736   -2.3905 C   0  0  0  0  0  0  0  0  0  0  0  0
    4.1352    0.0337   -3.1820 C   0  0  0  0  0  0  0  0  0  0  0  0
    2.8928   -0.4293   -2.7916 C   0  0  0  0  0  0  0  0  0  0  0  0
    2.4088   -1.2324   -3.7875 N   0  0  0  0  0  0  0  0  0  0  0  0
    3.3239   -1.3007   -4.8076 C   0  0  0  0  0  0  0  0  0  0  0  0
    3.2705   -2.0277   -5.9989 C   0  0  0  0  0  0  0  0  0  0  0  0
    4.3491   -1.9421   -6.8858 C   0  0  0  0  0  0  0  0  0  0  0  0
    4.3783   -2.6811   -8.0978 N   0  0  0  0  0  0  0  0  0  0  0  0
    3.5189   -3.7248   -8.4144 C   0  0  0  0  0  0  0  0  0  0  0  0
    2.6967   -4.2323   -7.6659 O   0  0  0  0  0  0  0  0  0  0  0  0
    3.6238   -4.2227   -9.8266 C   0  0  3  0  0  0  0  0  0  0  0  0
    2.4491   -5.0167  -10.3636 C   0  0  0  0  0  0  0  0  0  0  0  0
    3.7800   -5.6966  -10.1871 C   0  0  3  0  0  0  0  0  0  0  0  0
    4.0657   -6.7042   -9.0971 C   0  0  0  0  0  0  0  0  0  0  0  0
    3.0861   -7.5469   -8.5482 C   0  0  0  0  0  0  0  0  0  0  0  0
    3.3856   -8.4325   -7.5070 C   0  0  0  0  0  0  0  0  0  0  0  0
    4.6815   -8.5066   -7.0051 C   0  0  0  0  0  0  0  0  0  0  0  0
    5.6796   -7.7101   -7.5560 C   0  0  0  0  0  0  0  0  0  0  0  0
    5.3727   -6.8251   -8.5914 C   0  0  0  0  0  0  0  0  0  0  0  0
    5.4140   -1.0889   -6.5832 C   0  0  0  0  0  0  0  0  0  0  0  0
    5.4615   -0.3594   -5.3625 C   0  0  0  0  0  0  0  0  0  0  0  0
    4.4011   -0.4893   -4.4642 C   0  0  0  0  0  0  0  0  0  0  0  0
    7.6911    1.6883   -3.8871 H   0  0  0  0  0  0  0  0  0  0  0  0
    4.5926    1.1372   -1.3896 H   0  0  0  0  0  0  0  0  0  0  0  0
    2.3154   -0.2665   -1.8902 H   0  0  0  0  0  0  0  0  0  0  0  0
    1.5251   -1.7257   -3.7766 H   0  0  0  0  0  0  0  0  0  0  0  0
    2.3958   -2.6292   -6.2059 H   0  0  0  0  0  0  0  0  0  0  0  0
    5.1182   -2.4663   -8.7499 H   0  0  0  0  0  0  0  0  0  0  0  0
    4.0840   -3.5241  -10.5197 H   0  0  0  0  0  0  0  0  0  0  0  0
    2.1111   -4.7963  -11.3694 H   0  0  0  0  0  0  0  0  0  0  0  0
    1.6363   -5.2525   -9.6848 H   0  0  0  0  0  0  0  0  0  0  0  0
    4.2880   -5.9137  -11.1264 H   0  0  0  0  0  0  0  0  0  0  0  0
    2.0632   -7.5022   -8.9150 H   0  0  0  0  0  0  0  0  0  0  0  0
    2.6016   -9.0526   -7.0803 H   0  0  0  0  0  0  0  0  0  0  0  0
    4.9120   -9.1799   -6.1841 H   0  0  0  0  0  0  0  0  0  0  0  0
    6.6954   -7.7665   -7.1751 H   0  0  0  0  0  0  0  0  0  0  0  0
    6.1648   -6.2079   -9.0079 H   0  0  0  0  0  0  0  0  0  0  0  0
    6.2508   -0.9912   -7.2742 H   0  0  0  0  0  0  0  0  0  0  0  0
  1  2  2  0  0  0  0
  2  3  1  0  0  0  0
  2 25  1  0  0  0  0
  3  4  1  0  0  0  0
  3 27  1  0  0  0  0
  4  5  2  0  0  0  0
  5  6  1  0  0  0  0
  5 28  1  0  0  0  0
  6  7  2  0  0  0  0
  6 26  1  0  0  0  0
  7  8  1  0  0  0  0
  7 29  1  0  0  0  0
  8  9  1  0  0  0  0
  8 30  1  0  0  0  0
  9 10  1  0  0  0  0
  9 26  2  0  0  0  0
 10 11  2  0  0  0  0
 10 31  1  0  0  0  0
 11 12  1  0  0  0  0
 11 24  1  0  0  0  0
 12 13  1  0  0  0  0
 12 32  1  0  0  0  0
 13 14  2  0  0  0  0
 13 15  1  0  0  0  0
 15 16  1  0  0  0  0
 15 17  1  0  0  0  0
 15 33  1  0  0  0  0
 16 17  1  0  0  0  0
 16 34  1  0  0  0  0
 16 35  1  0  0  0  0
 17 18  1  0  0  0  0
 17 36  1  0  0  0  0
 18 19  1  0  0  0  0
 18 23  2  0  0  0  0
 19 20  2  0  0  0  0
 19 37  1  0  0  0  0
 20 21  1  0  0  0  0
 20 38  1  0  0  0  0
 21 22  2  0  0  0  0
 21 39  1  0  0  0  0
 22 23  1  0  0  0  0
 22 40  1  0  0  0  0
 23 41  1  0  0  0  0
 24 25  2  0  0  0  0
 24 42  1  0  0  0  0
 25 26  1  0  0  0  0
M  END
$$$$
