CHEMBL1181730
 OpenBabel04072215363D

 43 44  0  0  1  0  0  0  0  0999 V2000
    1.0010   -0.5468   -0.3492 C   0  0  0  0  0  0  0  0  0  0  0  0
    2.5062   -0.4083   -0.1755 C   0  0  0  0  0  0  0  0  0  0  0  0
    3.0847    0.6062   -1.1579 C   0  0  0  0  0  0  0  0  0  0  0  0
    4.6015    0.7610   -1.0016 C   0  0  0  0  0  0  0  0  0  0  0  0
    5.1179    1.7985   -2.0072 C   0  0  0  0  0  0  0  0  0  0  0  0
    6.6363    2.0138   -1.9290 C   0  0  0  0  0  0  0  0  0  0  0  0
    7.2017    3.0625   -2.9326 C   0  0  3  0  0  0  0  0  0  0  0  0
    6.6048    4.4947   -2.7825 C   0  0  3  0  0  0  0  0  0  0  0  0
    6.8101    5.1625   -1.4261 C   0  0  0  0  0  0  0  0  0  0  0  0
    7.1268    5.3795   -3.7874 O   0  0  0  0  0  0  0  0  0  0  0  0
    8.6790    3.0693   -2.8728 N   0  0  0  0  0  0  0  0  0  0  0  0
    9.5280    2.7450   -3.8949 C   0  0  0  0  0  0  0  0  0  0  0  0
   10.7802    2.7317   -3.3198 C   0  0  0  0  0  0  0  0  0  0  0  0
   11.9794    2.3928   -3.9190 C   0  0  0  0  0  0  0  0  0  0  0  0
   12.1415    1.8779   -5.1966 N   0  0  0  0  0  0  0  0  0  0  0  0
   13.0473    2.5558   -3.0982 N   0  0  0  0  0  0  0  0  0  0  0  0
   12.8348    3.0247   -1.8212 C   0  0  0  0  0  0  0  0  0  0  0  0
   11.6781    3.3341   -1.1679 N   0  0  0  0  0  0  0  0  0  0  0  0
   10.6115    3.1598   -1.9879 C   0  0  0  0  0  0  0  0  0  0  0  0
    9.3182    3.3387   -1.7046 N   0  0  0  0  0  0  0  0  0  0  0  0
    0.6040   -1.2837    0.3561 H   0  0  0  0  0  0  0  0  0  0  0  0
    0.7512   -0.8767   -1.3629 H   0  0  0  0  0  0  0  0  0  0  0  0
    0.4951    0.4065   -0.1653 H   0  0  0  0  0  0  0  0  0  0  0  0
    2.9788   -1.3850   -0.3271 H   0  0  0  0  0  0  0  0  0  0  0  0
    2.7222   -0.0951    0.8522 H   0  0  0  0  0  0  0  0  0  0  0  0
    2.5999    1.5780   -1.0005 H   0  0  0  0  0  0  0  0  0  0  0  0
    2.8522    0.2969   -2.1848 H   0  0  0  0  0  0  0  0  0  0  0  0
    5.0974   -0.2036   -1.1492 H   0  0  0  0  0  0  0  0  0  0  0  0
    4.8302    1.0932    0.0195 H   0  0  0  0  0  0  0  0  0  0  0  0
    4.6045    2.7408   -1.7913 H   0  0  0  0  0  0  0  0  0  0  0  0
    4.8441    1.4942   -3.0229 H   0  0  0  0  0  0  0  0  0  0  0  0
    7.1326    1.0515   -2.1070 H   0  0  0  0  0  0  0  0  0  0  0  0
    6.9024    2.3031   -0.9046 H   0  0  0  0  0  0  0  0  0  0  0  0
    6.9711    2.7199   -3.9483 H   0  0  0  0  0  0  0  0  0  0  0  0
    5.5319    4.4404   -2.9833 H   0  0  0  0  0  0  0  0  0  0  0  0
    7.8628    5.4165   -1.2756 H   0  0  0  0  0  0  0  0  0  0  0  0
    6.4654    4.5524   -0.5892 H   0  0  0  0  0  0  0  0  0  0  0  0
    6.2731    6.1167   -1.4017 H   0  0  0  0  0  0  0  0  0  0  0  0
    8.0670    5.5523   -3.5661 H   0  0  0  0  0  0  0  0  0  0  0  0
    9.2053    2.5857   -4.9124 H   0  0  0  0  0  0  0  0  0  0  0  0
   11.3336    1.3831   -5.5510 H   0  0  0  0  0  0  0  0  0  0  0  0
   13.0259    1.4021   -5.2944 H   0  0  0  0  0  0  0  0  0  0  0  0
   13.7440    3.1855   -1.2445 H   0  0  0  0  0  0  0  0  0  0  0  0
  1  2  1  0  0  0  0
  1 21  1  0  0  0  0
  1 22  1  0  0  0  0
  1 23  1  0  0  0  0
  2  3  1  0  0  0  0
  2 24  1  0  0  0  0
  2 25  1  0  0  0  0
  3  4  1  0  0  0  0
  3 26  1  0  0  0  0
  3 27  1  0  0  0  0
  4  5  1  0  0  0  0
  4 28  1  0  0  0  0
  4 29  1  0  0  0  0
  5  6  1  0  0  0  0
  5 30  1  0  0  0  0
  5 31  1  0  0  0  0
  6  7  1  0  0  0  0
  6 32  1  0  0  0  0
  6 33  1  0  0  0  0
  7  8  1  0  0  0  0
  7 11  1  0  0  0  0
  7 34  1  0  0  0  0
  8  9  1  0  0  0  0
  8 10  1  0  0  0  0
  8 35  1  0  0  0  0
  9 36  1  0  0  0  0
  9 37  1  0  0  0  0
  9 38  1  0  0  0  0
 10 39  1  0  0  0  0
 11 12  1  0  0  0  0
 11 20  1  0  0  0  0
 12 13  2  0  0  0  0
 12 40  1  0  0  0  0
 13 14  1  0  0  0  0
 13 19  1  0  0  0  0
 14 15  1  0  0  0  0
 14 16  2  0  0  0  0
 15 41  1  0  0  0  0
 15 42  1  0  0  0  0
 16 17  1  0  0  0  0
 17 18  2  0  0  0  0
 17 43  1  0  0  0  0
 18 19  1  0  0  0  0
 19 20  2  0  0  0  0
M  END
$$$$
