CHEMBL1277161
 OpenBabel04072215363D

 63 66  0  0  0  0  0  0  0  0999 V2000
    0.7517    0.3161    1.6686 C   0  0  0  0  0  0  0  0  0  0  0  0
    2.2697    0.4652    1.7230 C   0  0  0  0  0  0  0  0  0  0  0  0
    2.8055    1.6986    1.1094 N   0  0  0  0  0  0  0  0  0  0  0  0
    2.2024    2.9329    1.6259 C   0  0  0  0  0  0  0  0  0  0  0  0
    2.5098    3.2753    3.0796 C   0  0  0  0  0  0  0  0  0  0  0  0
    4.2840    1.6699    1.1889 C   0  0  0  0  0  0  0  0  0  0  0  0
    5.0607    2.8122    0.4792 C   0  0  0  0  0  0  0  0  0  0  0  0
    6.5090    2.6889    0.7070 N   0  0  0  0  0  0  0  0  0  0  0  0
    7.1767    3.6988    1.5213 C   0  0  0  0  0  0  0  0  0  0  0  0
    8.0912    4.5849    0.6694 C   0  0  0  0  0  0  0  0  0  0  0  0
    9.3094    3.8924    0.0460 C   0  0  0  0  0  0  0  0  0  0  0  0
   10.0880    3.0164    1.0186 C   0  0  0  0  0  0  0  0  0  0  0  0
    9.4782    1.6752    1.2834 C   0  0  0  0  0  0  0  0  0  0  0  0
   10.1604    0.7951    2.0908 N   0  0  0  0  0  0  0  0  0  0  0  0
    9.4978   -0.3975    2.2168 C   0  0  0  0  0  0  0  0  0  0  0  0
    9.9808   -1.4501    3.0466 C   0  0  0  0  0  0  0  0  0  0  0  0
   11.0585   -1.4770    3.8500 C   0  0  0  0  0  0  0  0  0  0  0  0
   12.1175   -0.4332    4.1259 C   0  0  0  0  0  0  0  0  0  0  0  0
   12.2104    0.6929    3.6745 O   0  0  0  0  0  0  0  0  0  0  0  0
   12.9921   -1.0179    5.0232 N   0  0  0  0  0  0  0  0  0  0  0  0
   12.6029   -2.3105    5.3462 C   0  0  0  0  0  0  0  0  0  0  0  0
   13.2538   -3.1722    6.2044 C   0  0  0  0  0  0  0  0  0  0  0  0
   12.6832   -4.4312    6.3958 C   0  0  0  0  0  0  0  0  0  0  0  0
   11.4994   -4.7789    5.7280 C   0  0  0  0  0  0  0  0  0  0  0  0
   10.9733   -5.9938    5.9323 F   0  0  0  0  0  0  0  0  0  0  0  0
   10.8545   -3.8974    4.8599 C   0  0  0  0  0  0  0  0  0  0  0  0
   11.4253   -2.6506    4.6685 C   0  0  0  0  0  0  0  0  0  0  0  0
    8.3694   -0.3014    1.4119 C   0  0  0  0  0  0  0  0  0  0  0  0
    7.3414   -1.3498    1.1375 C   0  0  0  0  0  0  0  0  0  0  0  0
    8.3004    1.0482    0.9052 C   0  0  0  0  0  0  0  0  0  0  0  0
    7.1572    1.5789    0.1581 C   0  0  0  0  0  0  0  0  0  0  0  0
    6.6803    0.9539   -0.7872 O   0  0  0  0  0  0  0  0  0  0  0  0
    0.4691   -0.7045    1.9500 H   0  0  0  0  0  0  0  0  0  0  0  0
    0.3659    0.5036    0.6617 H   0  0  0  0  0  0  0  0  0  0  0  0
    0.2543    0.9938    2.3695 H   0  0  0  0  0  0  0  0  0  0  0  0
    2.6886   -0.3962    1.1867 H   0  0  0  0  0  0  0  0  0  0  0  0
    2.5950    0.3698    2.7664 H   0  0  0  0  0  0  0  0  0  0  0  0
    1.1151    2.8939    1.4933 H   0  0  0  0  0  0  0  0  0  0  0  0
    2.5076    3.7750    0.9935 H   0  0  0  0  0  0  0  0  0  0  0  0
    2.3279    2.4312    3.7509 H   0  0  0  0  0  0  0  0  0  0  0  0
    1.8677    4.0990    3.4088 H   0  0  0  0  0  0  0  0  0  0  0  0
    3.5489    3.5970    3.2007 H   0  0  0  0  0  0  0  0  0  0  0  0
    4.6146    0.7265    0.7362 H   0  0  0  0  0  0  0  0  0  0  0  0
    4.6038    1.6222    2.2389 H   0  0  0  0  0  0  0  0  0  0  0  0
    4.7342    3.7888    0.8477 H   0  0  0  0  0  0  0  0  0  0  0  0
    4.8730    2.7829   -0.5991 H   0  0  0  0  0  0  0  0  0  0  0  0
    7.7154    3.2283    2.3482 H   0  0  0  0  0  0  0  0  0  0  0  0
    6.4207    4.3342    1.9965 H   0  0  0  0  0  0  0  0  0  0  0  0
    8.4476    5.4128    1.2936 H   0  0  0  0  0  0  0  0  0  0  0  0
    7.5074    5.0372   -0.1425 H   0  0  0  0  0  0  0  0  0  0  0  0
    9.9815    4.6798   -0.3201 H   0  0  0  0  0  0  0  0  0  0  0  0
    9.0162    3.3201   -0.8421 H   0  0  0  0  0  0  0  0  0  0  0  0
   10.2346    3.5481    1.9677 H   0  0  0  0  0  0  0  0  0  0  0  0
   11.0904    2.8485    0.6004 H   0  0  0  0  0  0  0  0  0  0  0  0
   11.0353    1.0261    2.5501 H   0  0  0  0  0  0  0  0  0  0  0  0
    9.3632   -2.3452    3.0235 H   0  0  0  0  0  0  0  0  0  0  0  0
   13.8061   -0.5393    5.3771 H   0  0  0  0  0  0  0  0  0  0  0  0
   14.1670   -2.8899    6.7171 H   0  0  0  0  0  0  0  0  0  0  0  0
   13.1479   -5.1536    7.0602 H   0  0  0  0  0  0  0  0  0  0  0  0
    9.9408   -4.2037    4.3659 H   0  0  0  0  0  0  0  0  0  0  0  0
    7.5489   -2.2868    1.6595 H   0  0  0  0  0  0  0  0  0  0  0  0
    7.3100   -1.5713    0.0646 H   0  0  0  0  0  0  0  0  0  0  0  0
    6.3494   -1.0059    1.4475 H   0  0  0  0  0  0  0  0  0  0  0  0
  1  2  1  0  0  0  0
  1 33  1  0  0  0  0
  1 34  1  0  0  0  0
  1 35  1  0  0  0  0
  2  3  1  0  0  0  0
  2 36  1  0  0  0  0
  2 37  1  0  0  0  0
  3  4  1  0  0  0  0
  3  6  1  0  0  0  0
  4  5  1  0  0  0  0
  4 38  1  0  0  0  0
  4 39  1  0  0  0  0
  5 40  1  0  0  0  0
  5 41  1  0  0  0  0
  5 42  1  0  0  0  0
  6  7  1  0  0  0  0
  6 43  1  0  0  0  0
  6 44  1  0  0  0  0
  7  8  1  0  0  0  0
  7 45  1  0  0  0  0
  7 46  1  0  0  0  0
  8  9  1  0  0  0  0
  8 31  1  0  0  0  0
  9 10  1  0  0  0  0
  9 47  1  0  0  0  0
  9 48  1  0  0  0  0
 10 11  1  0  0  0  0
 10 49  1  0  0  0  0
 10 50  1  0  0  0  0
 11 12  1  0  0  0  0
 11 51  1  0  0  0  0
 11 52  1  0  0  0  0
 12 13  1  0  0  0  0
 12 53  1  0  0  0  0
 12 54  1  0  0  0  0
 13 14  1  0  0  0  0
 13 30  2  0  0  0  0
 14 15  1  0  0  0  0
 14 55  1  0  0  0  0
 15 16  1  0  0  0  0
 15 28  2  0  0  0  0
 16 17  2  0  0  0  0
 16 56  1  0  0  0  0
 17 18  1  0  0  0  0
 17 27  1  0  0  0  0
 18 19  2  0  0  0  0
 18 20  1  0  0  0  0
 20 21  1  0  0  0  0
 20 57  1  0  0  0  0
 21 22  1  0  0  0  0
 21 27  2  0  0  0  0
 22 23  2  0  0  0  0
 22 58  1  0  0  0  0
 23 24  1  0  0  0  0
 23 59  1  0  0  0  0
 24 25  1  0  0  0  0
 24 26  2  0  0  0  0
 26 27  1  0  0  0  0
 26 60  1  0  0  0  0
 28 29  1  0  0  0  0
 28 30  1  0  0  0  0
 29 61  1  0  0  0  0
 29 62  1  0  0  0  0
 29 63  1  0  0  0  0
 30 31  1  0  0  0  0
 31 32  2  0  0  0  0
M  END
$$$$
