CHEMBL3952866
 OpenBabel04072215373D

 60 63  0  0  0  0  0  0  0  0999 V2000
    0.5134   -0.1431   -4.1497 C   0  0  0  0  0  0  0  0  0  0  0  0
    1.8506   -0.5678   -4.4185 O   0  0  0  0  0  0  0  0  0  0  0  0
    2.7937   -0.3246   -3.4489 C   0  0  0  0  0  0  0  0  0  0  0  0
    2.5438    0.3699   -2.2649 C   0  0  0  0  0  0  0  0  0  0  0  0
    3.5569    0.5151   -1.3209 C   0  0  0  0  0  0  0  0  0  0  0  0
    3.4282    1.1386   -0.1067 O   0  0  0  0  0  0  0  0  0  0  0  0
    2.1747    1.7494    0.1820 C   0  0  0  0  0  0  0  0  0  0  0  0
    4.8215   -0.0426   -1.5640 C   0  0  0  0  0  0  0  0  0  0  0  0
    5.1121   -0.7640   -2.7342 C   0  0  0  0  0  0  0  0  0  0  0  0
    6.3002   -1.5263   -2.8989 N   0  0  0  0  0  0  0  0  0  0  0  0
    6.8929   -2.1195   -1.6389 C   0  0  0  0  0  0  0  0  0  0  0  0
    5.9961   -2.9818   -0.7306 C   0  0  0  0  0  0  0  0  0  0  0  0
    5.6016   -4.3891   -1.2165 C   0  0  0  0  0  0  0  0  0  0  0  0
    4.9748   -5.0806   -0.0747 N   0  0  0  0  0  0  0  0  0  0  0  0
    4.4389   -6.4287   -0.3802 C   0  0  0  0  0  0  0  0  0  0  0  0
    3.6933   -7.1491    0.7802 C   0  0  0  0  0  0  0  0  0  0  0  0
    3.6226   -6.3922    1.9000 F   0  0  0  0  0  0  0  0  0  0  0  0
    2.4207   -7.4468    0.4226 F   0  0  0  0  0  0  0  0  0  0  0  0
    4.3013   -8.3116    1.1090 F   0  0  0  0  0  0  0  0  0  0  0  0
    7.3999   -1.2895   -3.8138 C   0  0  0  0  0  0  0  0  0  0  0  0
    8.0833   -2.4444   -4.2066 C   0  0  0  0  0  0  0  0  0  0  0  0
    9.4130   -2.3798   -4.5659 C   0  0  0  0  0  0  0  0  0  0  0  0
   10.0617   -1.1822   -4.7267 C   0  0  0  0  0  0  0  0  0  0  0  0
   11.3805   -1.2907   -4.9084 N   0  0  0  0  0  0  0  0  0  0  0  0
   12.0282   -0.1716   -5.2507 C   0  0  0  0  0  0  0  0  0  0  0  0
   11.3671    1.0180   -5.4868 C   0  0  0  0  0  0  0  0  0  0  0  0
   12.1075    2.0136   -6.2593 C   0  0  0  0  0  0  0  0  0  0  0  0
   12.0431    2.2888   -7.6510 C   0  0  0  0  0  0  0  0  0  0  0  0
   13.0636    3.0375   -8.0871 N   0  0  0  0  0  0  0  0  0  0  0  0
   13.8271    3.1975   -6.9965 N   0  0  0  0  0  0  0  0  0  0  0  0
   13.3388    2.5394   -5.9002 C   0  0  0  0  0  0  0  0  0  0  0  0
   10.0328    1.1628   -5.1789 N   0  0  0  0  0  0  0  0  0  0  0  0
    9.3387    0.0406   -4.7129 C   0  0  0  0  0  0  0  0  0  0  0  0
    7.9926   -0.0475   -4.1782 C   0  0  0  0  0  0  0  0  0  0  0  0
    4.0765   -0.8640   -3.6854 C   0  0  0  0  0  0  0  0  0  0  0  0
   -0.1245   -0.4757   -4.9750 H   0  0  0  0  0  0  0  0  0  0  0  0
    0.4483    0.9498   -4.1018 H   0  0  0  0  0  0  0  0  0  0  0  0
    0.1198   -0.5962   -3.2318 H   0  0  0  0  0  0  0  0  0  0  0  0
    1.5626    0.7811   -2.0704 H   0  0  0  0  0  0  0  0  0  0  0  0
    2.2531    2.2314    1.1613 H   0  0  0  0  0  0  0  0  0  0  0  0
    1.3745    1.0031    0.2419 H   0  0  0  0  0  0  0  0  0  0  0  0
    1.9363    2.5271   -0.5512 H   0  0  0  0  0  0  0  0  0  0  0  0
    5.5720    0.0687   -0.7870 H   0  0  0  0  0  0  0  0  0  0  0  0
    7.3071   -1.2971   -1.0404 H   0  0  0  0  0  0  0  0  0  0  0  0
    7.7581   -2.7579   -1.8606 H   0  0  0  0  0  0  0  0  0  0  0  0
    5.0964   -2.4403   -0.4280 H   0  0  0  0  0  0  0  0  0  0  0  0
    6.5830   -3.1244    0.1903 H   0  0  0  0  0  0  0  0  0  0  0  0
    6.4904   -4.9471   -1.5347 H   0  0  0  0  0  0  0  0  0  0  0  0
    4.9090   -4.3229   -2.0633 H   0  0  0  0  0  0  0  0  0  0  0  0
    4.2246   -4.5055    0.3154 H   0  0  0  0  0  0  0  0  0  0  0  0
    5.2632   -7.0776   -0.6993 H   0  0  0  0  0  0  0  0  0  0  0  0
    3.7406   -6.3543   -1.2222 H   0  0  0  0  0  0  0  0  0  0  0  0
    7.6247   -3.4205   -4.0638 H   0  0  0  0  0  0  0  0  0  0  0  0
    9.9782   -3.3017   -4.6791 H   0  0  0  0  0  0  0  0  0  0  0  0
   13.0940   -0.2891   -5.4086 H   0  0  0  0  0  0  0  0  0  0  0  0
   11.3273    1.9236   -8.3772 H   0  0  0  0  0  0  0  0  0  0  0  0
   14.6968    3.7158   -7.0904 H   0  0  0  0  0  0  0  0  0  0  0  0
   13.9300    2.4762   -4.9981 H   0  0  0  0  0  0  0  0  0  0  0  0
    7.4621    0.8858   -3.9928 H   0  0  0  0  0  0  0  0  0  0  0  0
    4.2373   -1.4384   -4.5951 H   0  0  0  0  0  0  0  0  0  0  0  0
  1  2  1  0  0  0  0
  1 36  1  0  0  0  0
  1 37  1  0  0  0  0
  1 38  1  0  0  0  0
  2  3  1  0  0  0  0
  3  4  1  0  0  0  0
  3 35  2  0  0  0  0
  4  5  2  0  0  0  0
  4 39  1  0  0  0  0
  5  6  1  0  0  0  0
  5  8  1  0  0  0  0
  6  7  1  0  0  0  0
  7 40  1  0  0  0  0
  7 41  1  0  0  0  0
  7 42  1  0  0  0  0
  8  9  2  0  0  0  0
  8 43  1  0  0  0  0
  9 10  1  0  0  0  0
  9 35  1  0  0  0  0
 10 11  1  0  0  0  0
 10 20  1  0  0  0  0
 11 12  1  0  0  0  0
 11 44  1  0  0  0  0
 11 45  1  0  0  0  0
 12 13  1  0  0  0  0
 12 46  1  0  0  0  0
 12 47  1  0  0  0  0
 13 14  1  0  0  0  0
 13 48  1  0  0  0  0
 13 49  1  0  0  0  0
 14 15  1  0  0  0  0
 14 50  1  0  0  0  0
 15 16  1  0  0  0  0
 15 51  1  0  0  0  0
 15 52  1  0  0  0  0
 16 17  1  0  0  0  0
 16 18  1  0  0  0  0
 16 19  1  0  0  0  0
 20 21  1  0  0  0  0
 20 34  2  0  0  0  0
 21 22  2  0  0  0  0
 21 53  1  0  0  0  0
 22 23  1  0  0  0  0
 22 54  1  0  0  0  0
 23 24  1  0  0  0  0
 23 33  2  0  0  0  0
 24 25  2  0  0  0  0
 25 26  1  0  0  0  0
 25 55  1  0  0  0  0
 26 27  1  0  0  0  0
 26 32  2  0  0  0  0
 27 28  1  0  0  0  0
 27 31  2  0  0  0  0
 28 29  2  0  0  0  0
 28 56  1  0  0  0  0
 29 30  1  0  0  0  0
 30 31  1  0  0  0  0
 30 57  1  0  0  0  0
 31 58  1  0  0  0  0
 32 33  1  0  0  0  0
 33 34  1  0  0  0  0
 34 59  1  0  0  0  0
 35 60  1  0  0  0  0
M  END
$$$$
