CHEMBL231412
 OpenBabel04072215363D

 39 42  0  0  0  0  0  0  0  0999 V2000
    1.1708   -0.1613   -1.7706 N   0  0  0  0  0  0  0  0  0  0  0  0
    2.5304   -0.1730   -1.4780 C   0  0  0  0  0  0  0  0  0  0  0  0
    3.1971    0.9144   -1.9273 N   0  0  0  0  0  0  0  0  0  0  0  0
    4.5031    1.0634   -1.6643 C   0  0  0  0  0  0  0  0  0  0  0  0
    5.2506    0.1648   -0.9427 C   0  0  0  0  0  0  0  0  0  0  0  0
    4.5740   -0.9751   -0.4952 C   0  0  0  0  0  0  0  0  0  0  0  0
    5.2853   -2.2437    0.4167 S   0  0  0  0  0  0  0  0  0  0  0  0
    3.8291   -3.1048    0.4705 C   0  0  0  0  0  0  0  0  0  0  0  0
    2.7789   -2.4603   -0.1625 C   0  0  0  0  0  0  0  0  0  0  0  0
    1.4487   -3.0859   -0.1230 C   0  0  0  0  0  0  0  0  0  0  0  0
    1.0280   -3.7186    1.0504 C   0  0  0  0  0  0  0  0  0  0  0  0
   -0.2305   -4.3119    1.1344 C   0  0  0  0  0  0  0  0  0  0  0  0
   -1.1379   -4.2291    0.0803 C   0  0  0  0  0  0  0  0  0  0  0  0
   -2.4604   -4.7288    0.1877 N   0  0  0  0  0  0  0  0  0  0  0  0
   -3.0871   -4.9953    1.3961 C   0  0  0  0  0  0  0  0  0  0  0  0
   -2.6079   -4.7029    2.4907 O   0  0  0  0  0  0  0  0  0  0  0  0
   -4.3026   -5.6345    1.2392 N   0  0  0  0  0  0  0  0  0  0  0  0
   -5.0958   -6.0182    2.3238 C   0  0  0  0  0  0  0  0  0  0  0  0
   -4.9602   -5.6034    3.6876 C   0  0  0  0  0  0  0  0  0  0  0  0
   -5.8475   -6.2252    4.5363 C   0  0  0  0  0  0  0  0  0  0  0  0
   -6.9015   -7.2693    3.6878 S   0  0  0  0  0  0  0  0  0  0  0  0
   -6.1539   -6.8950    2.1892 C   0  0  0  0  0  0  0  0  0  0  0  0
   -0.7165   -3.6385   -1.1124 C   0  0  0  0  0  0  0  0  0  0  0  0
    0.5775   -3.0963   -1.2187 C   0  0  0  0  0  0  0  0  0  0  0  0
    3.2102   -1.1897   -0.7499 C   0  0  0  0  0  0  0  0  0  0  0  0
    0.9270    0.7681   -2.0983 H   0  0  0  0  0  0  0  0  0  0  0  0
    0.6019   -0.5031   -1.0062 H   0  0  0  0  0  0  0  0  0  0  0  0
    4.9548    1.9697   -2.0597 H   0  0  0  0  0  0  0  0  0  0  0  0
    6.3008    0.3280   -0.7357 H   0  0  0  0  0  0  0  0  0  0  0  0
    3.8122   -4.0550    0.9885 H   0  0  0  0  0  0  0  0  0  0  0  0
    1.6610   -3.7609    1.9339 H   0  0  0  0  0  0  0  0  0  0  0  0
   -0.4664   -4.8268    2.0600 H   0  0  0  0  0  0  0  0  0  0  0  0
   -3.0537   -4.6446   -0.6270 H   0  0  0  0  0  0  0  0  0  0  0  0
   -4.5165   -6.0460    0.3440 H   0  0  0  0  0  0  0  0  0  0  0  0
   -4.2290   -4.8972    4.0586 H   0  0  0  0  0  0  0  0  0  0  0  0
   -5.9198   -6.1097    5.6064 H   0  0  0  0  0  0  0  0  0  0  0  0
   -6.5205   -7.3740    1.2941 H   0  0  0  0  0  0  0  0  0  0  0  0
   -1.3827   -3.5665   -1.9692 H   0  0  0  0  0  0  0  0  0  0  0  0
    0.8827   -2.6631   -2.1690 H   0  0  0  0  0  0  0  0  0  0  0  0
  1  2  1  0  0  0  0
  1 26  1  0  0  0  0
  1 27  1  0  0  0  0
  2  3  1  0  0  0  0
  2 25  2  0  0  0  0
  3  4  2  0  0  0  0
  4  5  1  0  0  0  0
  4 28  1  0  0  0  0
  5  6  2  0  0  0  0
  5 29  1  0  0  0  0
  6  7  1  0  0  0  0
  6 25  1  0  0  0  0
  7  8  1  0  0  0  0
  8  9  2  0  0  0  0
  8 30  1  0  0  0  0
  9 10  1  0  0  0  0
  9 25  1  0  0  0  0
 10 11  1  0  0  0  0
 10 24  2  0  0  0  0
 11 12  2  0  0  0  0
 11 31  1  0  0  0  0
 12 13  1  0  0  0  0
 12 32  1  0  0  0  0
 13 14  1  0  0  0  0
 13 23  2  0  0  0  0
 14 15  1  0  0  0  0
 14 33  1  0  0  0  0
 15 16  2  0  0  0  0
 15 17  1  0  0  0  0
 17 18  1  0  0  0  0
 17 34  1  0  0  0  0
 18 19  1  0  0  0  0
 18 22  2  0  0  0  0
 19 20  2  0  0  0  0
 19 35  1  0  0  0  0
 20 21  1  0  0  0  0
 20 36  1  0  0  0  0
 21 22  1  0  0  0  0
 22 37  1  0  0  0  0
 23 24  1  0  0  0  0
 23 38  1  0  0  0  0
 24 39  1  0  0  0  0
M  END
$$$$
