CHEMBL270086
 OpenBabel04072215363D

 42 45  0  0  0  0  0  0  0  0999 V2000
    1.2262    2.0581    3.2005 N   0  0  0  0  0  0  0  0  0  0  0  0
    1.4827    0.9542    2.4741 C   0  0  0  0  0  0  0  0  0  0  0  0
    1.8556   -0.1860    3.0601 N   0  0  0  0  0  0  0  0  0  0  0  0
    2.0463   -1.0912    2.0440 O   0  0  0  0  0  0  0  0  0  0  0  0
    1.7726   -0.5044    0.8532 C   0  0  0  0  0  0  0  0  0  0  0  0
    1.8603   -1.1509   -0.3763 C   0  0  0  0  0  0  0  0  0  0  0  0
    1.5189   -0.4023   -1.4972 C   0  0  0  0  0  0  0  0  0  0  0  0
    1.1165    0.9287   -1.3687 C   0  0  0  0  0  0  0  0  0  0  0  0
    1.0445    1.5856   -0.1136 C   0  0  0  0  0  0  0  0  0  0  0  0
    0.5910    2.9852   -0.0290 C   0  0  0  0  0  0  0  0  0  0  0  0
   -0.3074    3.3736    0.9584 C   0  0  0  0  0  0  0  0  0  0  0  0
   -0.6696    4.7066    1.1300 C   0  0  0  0  0  0  0  0  0  0  0  0
   -0.2541    5.7042    0.2499 C   0  0  0  0  0  0  0  0  0  0  0  0
   -0.6518    7.0638    0.3850 N   0  0  0  0  0  0  0  0  0  0  0  0
   -1.4678    7.5380    1.4046 C   0  0  0  0  0  0  0  0  0  0  0  0
   -1.9317    6.8337    2.2907 O   0  0  0  0  0  0  0  0  0  0  0  0
   -1.7403    8.8914    1.3183 N   0  0  0  0  0  0  0  0  0  0  0  0
   -2.4926    9.5738    2.3188 C   0  0  0  0  0  0  0  0  0  0  0  0
   -2.5956    9.1035    3.6396 C   0  0  0  0  0  0  0  0  0  0  0  0
   -3.4230    9.7268    4.5753 C   0  0  0  0  0  0  0  0  0  0  0  0
   -4.1320   10.8627    4.2138 C   0  0  0  0  0  0  0  0  0  0  0  0
   -3.9868   11.3654    2.9254 C   0  0  0  0  0  0  0  0  0  0  0  0
   -4.6648   12.4704    2.5769 F   0  0  0  0  0  0  0  0  0  0  0  0
   -3.1737   10.7418    1.9783 C   0  0  0  0  0  0  0  0  0  0  0  0
    0.5756    5.3255   -0.8070 C   0  0  0  0  0  0  0  0  0  0  0  0
    1.0011    3.9847   -0.9345 C   0  0  0  0  0  0  0  0  0  0  0  0
    1.3916    0.8185    1.0441 C   0  0  0  0  0  0  0  0  0  0  0  0
    1.4222    2.0257    4.1953 H   0  0  0  0  0  0  0  0  0  0  0  0
    1.2680    2.9890    2.8034 H   0  0  0  0  0  0  0  0  0  0  0  0
    2.1686   -2.1871   -0.4455 H   0  0  0  0  0  0  0  0  0  0  0  0
    1.5546   -0.8627   -2.4818 H   0  0  0  0  0  0  0  0  0  0  0  0
    0.8272    1.4628   -2.2733 H   0  0  0  0  0  0  0  0  0  0  0  0
   -0.7323    2.6462    1.6481 H   0  0  0  0  0  0  0  0  0  0  0  0
   -1.2940    4.8978    1.9933 H   0  0  0  0  0  0  0  0  0  0  0  0
   -0.2845    7.7263   -0.2780 H   0  0  0  0  0  0  0  0  0  0  0  0
   -1.7019    9.3149    0.4072 H   0  0  0  0  0  0  0  0  0  0  0  0
   -2.0439    8.2298    3.9771 H   0  0  0  0  0  0  0  0  0  0  0  0
   -3.5134    9.3071    5.5761 H   0  0  0  0  0  0  0  0  0  0  0  0
   -4.7881   11.3525    4.9229 H   0  0  0  0  0  0  0  0  0  0  0  0
   -3.1228   11.1648    0.9814 H   0  0  0  0  0  0  0  0  0  0  0  0
    0.9119    6.0490   -1.5455 H   0  0  0  0  0  0  0  0  0  0  0  0
    1.6648    3.7311   -1.7599 H   0  0  0  0  0  0  0  0  0  0  0  0
  1  2  1  0  0  0  0
  1 28  1  0  0  0  0
  1 29  1  0  0  0  0
  2  3  2  0  0  0  0
  2 27  1  0  0  0  0
  3  4  1  0  0  0  0
  4  5  1  0  0  0  0
  5  6  1  0  0  0  0
  5 27  2  0  0  0  0
  6  7  2  0  0  0  0
  6 30  1  0  0  0  0
  7  8  1  0  0  0  0
  7 31  1  0  0  0  0
  8  9  2  0  0  0  0
  8 32  1  0  0  0  0
  9 10  1  0  0  0  0
  9 27  1  0  0  0  0
 10 11  1  0  0  0  0
 10 26  2  0  0  0  0
 11 12  2  0  0  0  0
 11 33  1  0  0  0  0
 12 13  1  0  0  0  0
 12 34  1  0  0  0  0
 13 14  1  0  0  0  0
 13 25  2  0  0  0  0
 14 15  1  0  0  0  0
 14 35  1  0  0  0  0
 15 16  2  0  0  0  0
 15 17  1  0  0  0  0
 17 18  1  0  0  0  0
 17 36  1  0  0  0  0
 18 19  1  0  0  0  0
 18 24  2  0  0  0  0
 19 20  2  0  0  0  0
 19 37  1  0  0  0  0
 20 21  1  0  0  0  0
 20 38  1  0  0  0  0
 21 22  2  0  0  0  0
 21 39  1  0  0  0  0
 22 23  1  0  0  0  0
 22 24  1  0  0  0  0
 24 40  1  0  0  0  0
 25 26  1  0  0  0  0
 25 41  1  0  0  0  0
 26 42  1  0  0  0  0
M  END
$$$$
