CHEMBL400402
 OpenBabel04072215373D

 60 64  0  0  0  0  0  0  0  0999 V2000
    1.3513    0.3084    1.7903 C   0  0  0  0  0  0  0  0  0  0  0  0
    2.6942    0.2246    1.1154 C   0  0  0  0  0  0  0  0  0  0  0  0
    3.4103   -0.9891    1.1438 C   0  0  0  0  0  0  0  0  0  0  0  0
    4.6456   -1.1469    0.4914 C   0  0  0  0  0  0  0  0  0  0  0  0
    5.3790   -2.4421    0.5270 C   0  0  0  0  0  0  0  0  0  0  0  0
    4.6311   -3.6417    0.4616 C   0  0  0  0  0  0  0  0  0  0  0  0
    5.2420   -4.8910    0.5596 C   0  0  0  0  0  0  0  0  0  0  0  0
    4.5113   -6.0410    0.5516 O   0  0  0  0  0  0  0  0  0  0  0  0
    6.6152   -5.0016    0.6797 C   0  0  0  0  0  0  0  0  0  0  0  0
    7.3880   -3.8462    0.7107 C   0  0  0  0  0  0  0  0  0  0  0  0
    6.7835   -2.5800    0.6542 C   0  0  0  0  0  0  0  0  0  0  0  0
    7.8716   -1.2410    0.8255 Cl  0  0  0  0  0  0  0  0  0  0  0  0
    5.1192   -0.0301   -0.2003 C   0  0  0  0  0  0  0  0  0  0  0  0
    4.4591    1.1913   -0.1805 C   0  0  0  0  0  0  0  0  0  0  0  0
    5.0121    2.2341   -0.7940 N   0  0  0  0  0  0  0  0  0  0  0  0
    4.3812    3.4296   -0.7520 N   0  0  0  0  0  0  0  0  0  0  0  0
    3.2049    3.5608   -0.1037 C   0  0  0  0  0  0  0  0  0  0  0  0
    2.5833    4.8068   -0.0588 N   0  0  0  0  0  0  0  0  0  0  0  0
    3.2213    6.0552   -0.1024 C   0  0  0  0  0  0  0  0  0  0  0  0
    2.5422    7.1590   -0.6247 C   0  0  0  0  0  0  0  0  0  0  0  0
    3.1849    8.3956   -0.7556 C   0  0  0  0  0  0  0  0  0  0  0  0
    4.5036    8.5504   -0.3248 C   0  0  0  0  0  0  0  0  0  0  0  0
    5.2281    9.7071   -0.3661 O   0  0  0  0  0  0  0  0  0  0  0  0
    4.4528   10.9039   -0.4201 C   0  0  0  0  0  0  0  0  0  0  0  0
    5.3189   12.0613    0.0919 C   0  0  0  0  0  0  0  0  0  0  0  0
    4.5847   13.3361    0.1960 N   0  0  0  0  0  0  0  0  0  0  0  0
    4.1253   13.8480   -1.1039 C   0  0  0  0  0  0  0  0  0  0  0  0
    5.3076   14.6164   -1.6522 C   0  0  0  0  0  0  0  0  0  0  0  0
    5.8479   15.3053   -0.4156 C   0  0  0  0  0  0  0  0  0  0  0  0
    5.4579   14.3929    0.7448 C   0  0  0  0  0  0  0  0  0  0  0  0
    5.1890    7.4590    0.1926 C   0  0  0  0  0  0  0  0  0  0  0  0
    4.5521    6.2259    0.3065 C   0  0  0  0  0  0  0  0  0  0  0  0
    2.5870    2.5321    0.4924 N   0  0  0  0  0  0  0  0  0  0  0  0
    3.2284    1.3447    0.4743 C   0  0  0  0  0  0  0  0  0  0  0  0
    1.0489   -0.6599    2.2037 H   0  0  0  0  0  0  0  0  0  0  0  0
    0.5836    0.6067    1.0680 H   0  0  0  0  0  0  0  0  0  0  0  0
    1.3794    1.0300    2.6124 H   0  0  0  0  0  0  0  0  0  0  0  0
    2.9814   -1.8237    1.6970 H   0  0  0  0  0  0  0  0  0  0  0  0
    3.5520   -3.5973    0.3381 H   0  0  0  0  0  0  0  0  0  0  0  0
    3.5683   -5.8205    0.4762 H   0  0  0  0  0  0  0  0  0  0  0  0
    7.0824   -5.9787    0.7587 H   0  0  0  0  0  0  0  0  0  0  0  0
    8.4681   -3.9353    0.8036 H   0  0  0  0  0  0  0  0  0  0  0  0
    6.0415   -0.0766   -0.7748 H   0  0  0  0  0  0  0  0  0  0  0  0
    1.7055    4.7693    0.4315 H   0  0  0  0  0  0  0  0  0  0  0  0
    1.5203    7.0541   -0.9803 H   0  0  0  0  0  0  0  0  0  0  0  0
    2.6378    9.2136   -1.2131 H   0  0  0  0  0  0  0  0  0  0  0  0
    3.5629   10.8292    0.2174 H   0  0  0  0  0  0  0  0  0  0  0  0
    4.1545   11.0631   -1.4607 H   0  0  0  0  0  0  0  0  0  0  0  0
    6.2230   12.1480   -0.5247 H   0  0  0  0  0  0  0  0  0  0  0  0
    5.6736   11.7766    1.0928 H   0  0  0  0  0  0  0  0  0  0  0  0
    3.2839   14.5298   -0.9277 H   0  0  0  0  0  0  0  0  0  0  0  0
    3.7633   13.0879   -1.8000 H   0  0  0  0  0  0  0  0  0  0  0  0
    5.0208   15.3242   -2.4344 H   0  0  0  0  0  0  0  0  0  0  0  0
    6.0582   13.9334   -2.0677 H   0  0  0  0  0  0  0  0  0  0  0  0
    5.3655   16.2826   -0.2965 H   0  0  0  0  0  0  0  0  0  0  0  0
    6.9283   15.4621   -0.4799 H   0  0  0  0  0  0  0  0  0  0  0  0
    4.8982   14.9654    1.4934 H   0  0  0  0  0  0  0  0  0  0  0  0
    6.3459   13.9979    1.2528 H   0  0  0  0  0  0  0  0  0  0  0  0
    6.2214    7.5655    0.5138 H   0  0  0  0  0  0  0  0  0  0  0  0
    5.1176    5.3998    0.7307 H   0  0  0  0  0  0  0  0  0  0  0  0
  1  2  1  0  0  0  0
  1 35  1  0  0  0  0
  1 36  1  0  0  0  0
  1 37  1  0  0  0  0
  2  3  1  0  0  0  0
  2 34  2  0  0  0  0
  3  4  2  0  0  0  0
  3 38  1  0  0  0  0
  4  5  1  0  0  0  0
  4 13  1  0  0  0  0
  5  6  1  0  0  0  0
  5 11  2  0  0  0  0
  6  7  2  0  0  0  0
  6 39  1  0  0  0  0
  7  8  1  0  0  0  0
  7  9  1  0  0  0  0
  8 40  1  0  0  0  0
  9 10  2  0  0  0  0
  9 41  1  0  0  0  0
 10 11  1  0  0  0  0
 10 42  1  0  0  0  0
 11 12  1  0  0  0  0
 13 14  2  0  0  0  0
 13 43  1  0  0  0  0
 14 15  1  0  0  0  0
 14 34  1  0  0  0  0
 15 16  2  0  0  0  0
 16 17  1  0  0  0  0
 17 18  1  0  0  0  0
 17 33  2  0  0  0  0
 18 19  1  0  0  0  0
 18 44  1  0  0  0  0
 19 20  1  0  0  0  0
 19 32  2  0  0  0  0
 20 21  2  0  0  0  0
 20 45  1  0  0  0  0
 21 22  1  0  0  0  0
 21 46  1  0  0  0  0
 22 23  1  0  0  0  0
 22 31  2  0  0  0  0
 23 24  1  0  0  0  0
 24 25  1  0  0  0  0
 24 47  1  0  0  0  0
 24 48  1  0  0  0  0
 25 26  1  0  0  0  0
 25 49  1  0  0  0  0
 25 50  1  0  0  0  0
 26 27  1  0  0  0  0
 26 30  1  0  0  0  0
 27 28  1  0  0  0  0
 27 51  1  0  0  0  0
 27 52  1  0  0  0  0
 28 29  1  0  0  0  0
 28 53  1  0  0  0  0
 28 54  1  0  0  0  0
 29 30  1  0  0  0  0
 29 55  1  0  0  0  0
 29 56  1  0  0  0  0
 30 57  1  0  0  0  0
 30 58  1  0  0  0  0
 31 32  1  0  0  0  0
 31 59  1  0  0  0  0
 32 60  1  0  0  0  0
 33 34  1  0  0  0  0
M  END
$$$$
