CHEMBL3940325
 OpenBabel04072215373D

 57 60  0  0  0  0  0  0  0  0999 V2000
    2.5495    0.0928   -0.2520 C   0  0  0  0  0  0  0  0  0  0  0  0
    1.0434    0.0419   -0.1350 C   0  0  0  0  0  0  0  0  0  0  0  0
    0.3840    1.2846   -0.0574 C   0  0  0  0  0  0  0  0  0  0  0  0
   -1.0080    1.3907    0.0076 C   0  0  0  0  0  0  0  0  0  0  0  0
   -1.6666    2.6494    0.0046 N   0  0  0  0  0  0  0  0  0  0  0  0
   -1.1026    3.7894   -0.5386 C   0  0  0  0  0  0  0  0  0  0  0  0
   -0.0538    3.8158   -1.1768 O   0  0  0  0  0  0  0  0  0  0  0  0
   -1.8317    4.9412   -0.2525 N   0  0  0  0  0  0  0  0  0  0  0  0
   -1.3185    6.1904   -0.6888 C   0  0  0  0  0  0  0  0  0  0  0  0
   -0.9045    6.3656   -2.0157 C   0  0  0  0  0  0  0  0  0  0  0  0
   -0.2716    7.5419   -2.4077 C   0  0  0  0  0  0  0  0  0  0  0  0
   -0.0435    8.5388   -1.4689 C   0  0  0  0  0  0  0  0  0  0  0  0
    0.6046    9.6452   -1.8572 F   0  0  0  0  0  0  0  0  0  0  0  0
   -0.4474    8.3931   -0.1389 C   0  0  0  0  0  0  0  0  0  0  0  0
   -0.1132    9.4634    0.8682 C   0  0  0  0  0  0  0  0  0  0  0  0
    1.3882    9.6598    1.0512 C   0  0  0  0  0  0  0  0  0  0  0  0
   -0.6599   10.6678    0.5341 F   0  0  0  0  0  0  0  0  0  0  0  0
   -0.6258    9.1776    2.1061 F   0  0  0  0  0  0  0  0  0  0  0  0
   -1.1320    7.2206    0.2372 C   0  0  0  0  0  0  0  0  0  0  0  0
   -1.7520    0.2176    0.0957 C   0  0  0  0  0  0  0  0  0  0  0  0
   -1.1077   -1.0272    0.0687 C   0  0  0  0  0  0  0  0  0  0  0  0
    0.2869   -1.1340   -0.0892 C   0  0  0  0  0  0  0  0  0  0  0  0
    0.9209   -2.3660   -0.1048 O   0  0  0  0  0  0  0  0  0  0  0  0
    0.3014   -3.4105   -0.8000 C   0  0  0  0  0  0  0  0  0  0  0  0
    0.5535   -4.7120   -0.3924 C   0  0  0  0  0  0  0  0  0  0  0  0
   -0.0455   -5.7157   -1.1360 C   0  0  0  0  0  0  0  0  0  0  0  0
    0.2515   -7.0670   -0.8535 N   0  0  0  0  0  0  0  0  0  0  0  0
   -0.3214   -8.1323   -1.5132 C   0  0  0  0  0  0  0  0  0  0  0  0
   -1.2889   -8.1015   -2.2692 O   0  0  0  0  0  0  0  0  0  0  0  0
    0.2772   -9.4875   -1.2754 C   0  0  0  0  0  0  0  0  0  0  0  0
    0.3027  -10.0803    0.1104 C   0  0  0  0  0  0  0  0  0  0  0  0
    1.5945   -9.7773   -0.5926 C   0  0  0  0  0  0  0  0  0  0  0  0
   -0.8567   -5.4328   -2.1628 N   0  0  0  0  0  0  0  0  0  0  0  0
   -1.0344   -4.1499   -2.4786 C   0  0  0  0  0  0  0  0  0  0  0  0
   -0.4694   -3.1122   -1.8610 N   0  0  0  0  0  0  0  0  0  0  0  0
    2.8728    1.0783   -0.6148 H   0  0  0  0  0  0  0  0  0  0  0  0
    2.9251   -0.6380   -0.9701 H   0  0  0  0  0  0  0  0  0  0  0  0
    3.0092   -0.0606    0.7269 H   0  0  0  0  0  0  0  0  0  0  0  0
    0.9957    2.1849   -0.0570 H   0  0  0  0  0  0  0  0  0  0  0  0
   -2.6689    2.6484    0.1112 H   0  0  0  0  0  0  0  0  0  0  0  0
   -2.2757    4.9262    0.6570 H   0  0  0  0  0  0  0  0  0  0  0  0
   -1.0424    5.5721   -2.7475 H   0  0  0  0  0  0  0  0  0  0  0  0
    0.0750    7.6694   -3.4284 H   0  0  0  0  0  0  0  0  0  0  0  0
    1.8717   10.0279    0.1410 H   0  0  0  0  0  0  0  0  0  0  0  0
    1.8785    8.7288    1.3550 H   0  0  0  0  0  0  0  0  0  0  0  0
    1.5739   10.4020    1.8348 H   0  0  0  0  0  0  0  0  0  0  0  0
   -1.4353    7.0874    1.2733 H   0  0  0  0  0  0  0  0  0  0  0  0
   -2.8381    0.2413    0.1565 H   0  0  0  0  0  0  0  0  0  0  0  0
   -1.7183   -1.9261    0.1385 H   0  0  0  0  0  0  0  0  0  0  0  0
    1.1850   -4.9153    0.4608 H   0  0  0  0  0  0  0  0  0  0  0  0
    0.9583   -7.2558   -0.1604 H   0  0  0  0  0  0  0  0  0  0  0  0
    0.0273  -10.1767   -2.0830 H   0  0  0  0  0  0  0  0  0  0  0  0
    0.0020  -11.1215    0.2112 H   0  0  0  0  0  0  0  0  0  0  0  0
    0.0116   -9.4591    0.9503 H   0  0  0  0  0  0  0  0  0  0  0  0
    2.1691  -10.6174   -0.9653 H   0  0  0  0  0  0  0  0  0  0  0  0
    2.2105   -8.9703   -0.2237 H   0  0  0  0  0  0  0  0  0  0  0  0
   -1.6946   -3.9366   -3.3123 H   0  0  0  0  0  0  0  0  0  0  0  0
  1  2  1  0  0  0  0
  1 36  1  0  0  0  0
  1 37  1  0  0  0  0
  1 38  1  0  0  0  0
  2  3  1  0  0  0  0
  2 22  2  0  0  0  0
  3  4  2  0  0  0  0
  3 39  1  0  0  0  0
  4  5  1  0  0  0  0
  4 20  1  0  0  0  0
  5  6  1  0  0  0  0
  5 40  1  0  0  0  0
  6  7  2  0  0  0  0
  6  8  1  0  0  0  0
  8  9  1  0  0  0  0
  8 41  1  0  0  0  0
  9 10  1  0  0  0  0
  9 19  2  0  0  0  0
 10 11  2  0  0  0  0
 10 42  1  0  0  0  0
 11 12  1  0  0  0  0
 11 43  1  0  0  0  0
 12 13  1  0  0  0  0
 12 14  2  0  0  0  0
 14 15  1  0  0  0  0
 14 19  1  0  0  0  0
 15 16  1  0  0  0  0
 15 17  1  0  0  0  0
 15 18  1  0  0  0  0
 16 44  1  0  0  0  0
 16 45  1  0  0  0  0
 16 46  1  0  0  0  0
 19 47  1  0  0  0  0
 20 21  2  0  0  0  0
 20 48  1  0  0  0  0
 21 22  1  0  0  0  0
 21 49  1  0  0  0  0
 22 23  1  0  0  0  0
 23 24  1  0  0  0  0
 24 25  1  0  0  0  0
 24 35  2  0  0  0  0
 25 26  2  0  0  0  0
 25 50  1  0  0  0  0
 26 27  1  0  0  0  0
 26 33  1  0  0  0  0
 27 28  1  0  0  0  0
 27 51  1  0  0  0  0
 28 29  2  0  0  0  0
 28 30  1  0  0  0  0
 30 31  1  0  0  0  0
 30 32  1  0  0  0  0
 30 52  1  0  0  0  0
 31 32  1  0  0  0  0
 31 53  1  0  0  0  0
 31 54  1  0  0  0  0
 32 55  1  0  0  0  0
 32 56  1  0  0  0  0
 33 34  2  0  0  0  0
 34 35  1  0  0  0  0
 34 57  1  0  0  0  0
M  END
$$$$
