CHEMBL429582
 OpenBabel04072215383D

 48 51  0  0  0  0  0  0  0  0999 V2000
    2.5037    0.0259   -0.0561 C   0  0  0  0  0  0  0  0  0  0  0  0
    0.9958   -0.0045   -0.0766 C   0  0  0  0  0  0  0  0  0  0  0  0
    0.3234    1.1914    0.0615 C   0  0  0  0  0  0  0  0  0  0  0  0
   -1.0547    1.1915    0.1735 C   0  0  0  0  0  0  0  0  0  0  0  0
   -1.8246    0.0315    0.0451 C   0  0  0  0  0  0  0  0  0  0  0  0
   -3.2370    0.0935   -0.0422 N   0  0  0  0  0  0  0  0  0  0  0  0
   -4.0265    1.1631    0.3672 C   0  0  0  0  0  0  0  0  0  0  0  0
   -3.5267    2.1720    0.8562 O   0  0  0  0  0  0  0  0  0  0  0  0
   -5.5300    1.0352    0.2857 C   0  0  0  0  0  0  0  0  0  0  0  0
   -6.1495    0.2361   -0.6904 C   0  0  0  0  0  0  0  0  0  0  0  0
   -7.5236    0.2131   -0.8770 C   0  0  0  0  0  0  0  0  0  0  0  0
   -8.3283    0.8808    0.0206 C   0  0  0  0  0  0  0  0  0  0  0  0
   -7.7530    1.6278    1.0605 C   0  0  0  0  0  0  0  0  0  0  0  0
   -8.6411    2.3216    2.0518 C   0  0  0  0  0  0  0  0  0  0  0  0
   -9.9593    2.1180    1.7899 F   0  0  0  0  0  0  0  0  0  0  0  0
   -8.4268    1.8933    3.3235 F   0  0  0  0  0  0  0  0  0  0  0  0
   -8.4648    3.6716    2.0726 F   0  0  0  0  0  0  0  0  0  0  0  0
   -6.3510    1.7239    1.1793 C   0  0  0  0  0  0  0  0  0  0  0  0
   -1.1646   -1.1816   -0.0616 C   0  0  0  0  0  0  0  0  0  0  0  0
    0.2424   -1.2003   -0.1748 C   0  0  0  0  0  0  0  0  0  0  0  0
    0.9233   -2.4728   -0.1489 C   0  0  0  0  0  0  0  0  0  0  0  0
    0.2282   -3.3901    0.6213 C   0  0  0  0  0  0  0  0  0  0  0  0
    0.6350   -4.6306    0.7179 C   0  0  0  0  0  0  0  0  0  0  0  0
    1.8168   -4.8822    0.1907 C   0  0  0  0  0  0  0  0  0  0  0  0
    2.1591   -6.1027    0.3081 N   0  0  0  0  0  0  0  0  0  0  0  0
    2.4644   -7.3060    0.4546 C   0  0  0  0  0  0  0  0  0  0  0  0
    1.5181   -7.4330    1.4699 N   0  0  0  0  0  0  0  0  0  0  0  0
    3.2707   -6.9074   -0.5589 N   0  0  0  0  0  0  0  0  0  0  0  0
    3.3601   -5.3992   -1.2232 C   0  0  0  0  0  0  0  0  0  0  0  0
    2.5345   -4.2658   -0.7515 C   0  0  0  0  0  0  0  0  0  0  0  0
    2.0903   -2.8706   -0.8667 C   0  0  0  0  0  0  0  0  0  0  0  0
    2.8801    1.0517   -0.0357 H   0  0  0  0  0  0  0  0  0  0  0  0
    2.8949   -0.4717   -0.9448 H   0  0  0  0  0  0  0  0  0  0  0  0
    2.9137   -0.4493    0.8414 H   0  0  0  0  0  0  0  0  0  0  0  0
    0.8478    2.1401    0.0554 H   0  0  0  0  0  0  0  0  0  0  0  0
   -1.5110    2.1685    0.2563 H   0  0  0  0  0  0  0  0  0  0  0  0
   -3.7385   -0.7521   -0.2856 H   0  0  0  0  0  0  0  0  0  0  0  0
   -5.5688   -0.3298   -1.4076 H   0  0  0  0  0  0  0  0  0  0  0  0
   -7.9412   -0.3326   -1.7177 H   0  0  0  0  0  0  0  0  0  0  0  0
   -9.4083    0.7990   -0.0804 H   0  0  0  0  0  0  0  0  0  0  0  0
   -5.9192    2.3237    1.9812 H   0  0  0  0  0  0  0  0  0  0  0  0
   -1.7061   -2.1259   -0.0340 H   0  0  0  0  0  0  0  0  0  0  0  0
   -0.6648   -3.2332    1.1906 H   0  0  0  0  0  0  0  0  0  0  0  0
   -0.0128   -5.3726    1.1248 H   0  0  0  0  0  0  0  0  0  0  0  0
    1.0058   -6.6018    1.7195 H   0  0  0  0  0  0  0  0  0  0  0  0
    1.1863   -8.1751    2.0595 H   0  0  0  0  0  0  0  0  0  0  0  0
    3.9285   -5.2782   -2.1502 H   0  0  0  0  0  0  0  0  0  0  0  0
    2.5903   -2.1127   -1.4668 H   0  0  0  0  0  0  0  0  0  0  0  0
  1  2  1  0  0  0  0
  1 32  1  0  0  0  0
  1 33  1  0  0  0  0
  1 34  1  0  0  0  0
  2  3  1  0  0  0  0
  2 20  2  0  0  0  0
  3  4  2  0  0  0  0
  3 35  1  0  0  0  0
  4  5  1  0  0  0  0
  4 36  1  0  0  0  0
  5  6  1  0  0  0  0
  5 19  2  0  0  0  0
  6  7  1  0  0  0  0
  6 37  1  0  0  0  0
  7  8  2  0  0  0  0
  7  9  1  0  0  0  0
  9 10  1  0  0  0  0
  9 18  2  0  0  0  0
 10 11  2  0  0  0  0
 10 38  1  0  0  0  0
 11 12  1  0  0  0  0
 11 39  1  0  0  0  0
 12 13  2  0  0  0  0
 12 40  1  0  0  0  0
 13 14  1  0  0  0  0
 13 18  1  0  0  0  0
 14 15  1  0  0  0  0
 14 16  1  0  0  0  0
 14 17  1  0  0  0  0
 18 41  1  0  0  0  0
 19 20  1  0  0  0  0
 19 42  1  0  0  0  0
 20 21  1  0  0  0  0
 21 22  1  0  0  0  0
 21 31  2  0  0  0  0
 22 23  2  0  0  0  0
 22 43  1  0  0  0  0
 23 24  1  0  0  0  0
 23 44  1  0  0  0  0
 24 25  1  0  0  0  0
 24 30  2  0  0  0  0
 25 26  2  0  0  0  0
 26 27  1  0  0  0  0
 26 28  1  0  0  0  0
 27 45  1  0  0  0  0
 27 46  1  0  0  0  0
 28 29  2  0  0  0  0
 29 30  1  0  0  0  0
 29 47  1  0  0  0  0
 30 31  1  0  0  0  0
 31 48  1  0  0  0  0
M  END
$$$$
