CHEMBL297012
 OpenBabel04072215363D

 43 46  0  0  0  0  0  0  0  0999 V2000
    4.2961   -1.0828    6.4170 C   0  0  0  0  0  0  0  0  0  0  0  0
    3.5304   -2.0544    5.7217 O   0  0  0  0  0  0  0  0  0  0  0  0
    4.0761   -2.5774    4.5857 C   0  0  0  0  0  0  0  0  0  0  0  0
    5.2955   -2.2228    4.0020 C   0  0  0  0  0  0  0  0  0  0  0  0
    5.7393   -2.8708    2.8379 C   0  0  0  0  0  0  0  0  0  0  0  0
    4.9737   -3.8849    2.2571 C   0  0  0  0  0  0  0  0  0  0  0  0
    5.3985   -4.5554    1.0983 N   0  0  0  0  0  0  0  0  0  0  0  0
    5.0368   -5.8525    0.7374 C   0  0  0  0  0  0  0  0  0  0  0  0
    4.7588   -6.7454    1.7031 N   0  0  0  0  0  0  0  0  0  0  0  0
    4.3278   -7.9580    1.3393 C   0  0  0  0  0  0  0  0  0  0  0  0
    4.1434   -8.3244    0.0342 C   0  0  0  0  0  0  0  0  0  0  0  0
    4.5191   -7.3857   -0.8961 C   0  0  0  0  0  0  0  0  0  0  0  0
    4.5033   -7.7403   -2.2775 N   0  0  0  0  0  0  0  0  0  0  0  0
    3.6238   -8.6327   -2.8621 C   0  0  0  0  0  0  0  0  0  0  0  0
    3.8925   -8.5931   -4.2085 C   0  0  0  0  0  0  0  0  0  0  0  0
    4.9465   -7.7632   -4.4624 N   0  0  0  0  0  0  0  0  0  0  0  0
    5.3550   -7.2926   -3.2897 C   0  0  0  0  0  0  0  0  0  0  0  0
    6.5861   -6.4906   -3.1218 C   0  0  0  0  0  0  0  0  0  0  0  0
    7.0047   -5.6446   -4.1575 C   0  0  0  0  0  0  0  0  0  0  0  0
    8.1442   -4.8452   -4.0120 C   0  0  0  0  0  0  0  0  0  0  0  0
    8.8722   -4.8687   -2.8236 C   0  0  0  0  0  0  0  0  0  0  0  0
    8.4983   -5.7342   -1.8046 C   0  0  0  0  0  0  0  0  0  0  0  0
    7.3929   -6.5696   -1.9773 C   0  0  0  0  0  0  0  0  0  0  0  0
    4.9712   -6.1555   -0.5592 N   0  0  0  0  0  0  0  0  0  0  0  0
    3.7318   -4.1872    2.8280 C   0  0  0  0  0  0  0  0  0  0  0  0
    3.2942   -3.5523    3.9856 C   0  0  0  0  0  0  0  0  0  0  0  0
    3.7531   -0.8290    7.3313 H   0  0  0  0  0  0  0  0  0  0  0  0
    4.3970   -0.1717    5.8196 H   0  0  0  0  0  0  0  0  0  0  0  0
    5.2733   -1.4789    6.7085 H   0  0  0  0  0  0  0  0  0  0  0  0
    5.9247   -1.4477    4.4274 H   0  0  0  0  0  0  0  0  0  0  0  0
    6.6925   -2.5793    2.4040 H   0  0  0  0  0  0  0  0  0  0  0  0
    6.2992   -4.3167    0.7123 H   0  0  0  0  0  0  0  0  0  0  0  0
    4.1420   -8.6443    2.1595 H   0  0  0  0  0  0  0  0  0  0  0  0
    3.8131   -9.3254   -0.2092 H   0  0  0  0  0  0  0  0  0  0  0  0
    2.8559   -9.1470   -2.3078 H   0  0  0  0  0  0  0  0  0  0  0  0
    3.3820   -9.1171   -5.0047 H   0  0  0  0  0  0  0  0  0  0  0  0
    6.4413   -5.6066   -5.0873 H   0  0  0  0  0  0  0  0  0  0  0  0
    8.4573   -4.1987   -4.8282 H   0  0  0  0  0  0  0  0  0  0  0  0
    9.7380   -4.2254   -2.7000 H   0  0  0  0  0  0  0  0  0  0  0  0
    9.0607   -5.7686   -0.8763 H   0  0  0  0  0  0  0  0  0  0  0  0
    7.1627   -7.2650   -1.1750 H   0  0  0  0  0  0  0  0  0  0  0  0
    3.0835   -4.9292    2.3768 H   0  0  0  0  0  0  0  0  0  0  0  0
    2.3332   -3.8301    4.4163 H   0  0  0  0  0  0  0  0  0  0  0  0
  1  2  1  0  0  0  0
  1 27  1  0  0  0  0
  1 28  1  0  0  0  0
  1 29  1  0  0  0  0
  2  3  1  0  0  0  0
  3  4  1  0  0  0  0
  3 26  2  0  0  0  0
  4  5  2  0  0  0  0
  4 30  1  0  0  0  0
  5  6  1  0  0  0  0
  5 31  1  0  0  0  0
  6  7  1  0  0  0  0
  6 25  2  0  0  0  0
  7  8  1  0  0  0  0
  7 32  1  0  0  0  0
  8  9  1  0  0  0  0
  8 24  2  0  0  0  0
  9 10  2  0  0  0  0
 10 11  1  0  0  0  0
 10 33  1  0  0  0  0
 11 12  2  0  0  0  0
 11 34  1  0  0  0  0
 12 13  1  0  0  0  0
 12 24  1  0  0  0  0
 13 14  1  0  0  0  0
 13 17  1  0  0  0  0
 14 15  2  0  0  0  0
 14 35  1  0  0  0  0
 15 16  1  0  0  0  0
 15 36  1  0  0  0  0
 16 17  2  0  0  0  0
 17 18  1  0  0  0  0
 18 19  1  0  0  0  0
 18 23  2  0  0  0  0
 19 20  2  0  0  0  0
 19 37  1  0  0  0  0
 20 21  1  0  0  0  0
 20 38  1  0  0  0  0
 21 22  2  0  0  0  0
 21 39  1  0  0  0  0
 22 23  1  0  0  0  0
 22 40  1  0  0  0  0
 23 41  1  0  0  0  0
 25 26  1  0  0  0  0
 25 42  1  0  0  0  0
 26 43  1  0  0  0  0
M  END
$$$$
