CHEMBL3912174
 OpenBabel04072215373D

 57 61  0  0  0  0  0  0  0  0999 V2000
    3.9720   -0.4439    1.2961 C   0  0  0  0  0  0  0  0  0  0  0  0
    3.2679   -0.5972    0.0687 O   0  0  0  0  0  0  0  0  0  0  0  0
    4.0609   -1.0742   -0.9541 C   0  0  0  0  0  0  0  0  0  0  0  0
    3.4519   -1.2093   -2.1827 C   0  0  0  0  0  0  0  0  0  0  0  0
    4.2228   -1.6582   -3.2580 C   0  0  0  0  0  0  0  0  0  0  0  0
    3.5750   -1.6779   -4.5877 C   0  0  0  0  0  0  0  0  0  0  0  0
    2.7080   -0.8303   -4.7764 O   0  0  0  0  0  0  0  0  0  0  0  0
    3.9631   -2.6639   -5.4755 N   0  0  0  0  0  0  0  0  0  0  0  0
    3.4031   -2.8372   -6.7643 C   0  0  0  0  0  0  0  0  0  0  0  0
    2.6457   -1.8490   -7.3986 C   0  0  0  0  0  0  0  0  0  0  0  0
    1.9950   -2.0922   -8.5975 C   0  0  0  0  0  0  0  0  0  0  0  0
    2.1233   -3.3280   -9.2102 C   0  0  0  0  0  0  0  0  0  0  0  0
    2.9853   -4.2880   -8.6717 C   0  0  0  0  0  0  0  0  0  0  0  0
    3.2432   -5.5740   -9.3692 C   0  0  0  0  0  0  0  0  0  0  0  0
    3.5289   -6.5637   -8.6958 O   0  0  0  0  0  0  0  0  0  0  0  0
    3.1799   -5.6922  -10.8592 C   0  0  0  0  0  0  0  0  0  0  0  0
    3.3515   -4.5992  -11.7322 C   0  0  0  0  0  0  0  0  0  0  0  0
    3.2168   -4.7387  -13.1304 C   0  0  0  0  0  0  0  0  0  0  0  0
    3.1040   -6.0409  -13.6475 C   0  0  0  0  0  0  0  0  0  0  0  0
    3.0292   -6.7182  -14.9113 C   0  0  0  0  0  0  0  0  0  0  0  0
    1.8277   -7.1298  -15.6293 C   0  0  0  0  0  0  0  0  0  0  0  0
    0.5853   -7.1334  -15.1070 C   0  0  0  0  0  0  0  0  0  0  0  0
   -0.3610   -8.2452  -15.3638 C   0  0  0  0  0  0  0  0  0  0  0  0
   -1.6138   -8.2490  -14.7573 C   0  0  0  0  0  0  0  0  0  0  0  0
   -2.3942   -9.4057  -14.8151 C   0  0  0  0  0  0  0  0  0  0  0  0
   -1.9046  -10.5307  -15.4660 C   0  0  0  0  0  0  0  0  0  0  0  0
   -0.6531  -10.4463  -16.0477 C   0  0  0  0  0  0  0  0  0  0  0  0
    0.1193   -9.3356  -16.0135 N   0  0  0  0  0  0  0  0  0  0  0  0
    3.9257   -7.7256  -14.8096 N   0  0  0  0  0  0  0  0  0  0  0  0
    3.7002   -8.1243  -13.5370 N   0  0  0  0  0  0  0  0  0  0  0  0
    3.2428   -7.0989  -12.7535 C   0  0  0  0  0  0  0  0  0  0  0  0
    3.0816   -6.9875  -11.3761 C   0  0  0  0  0  0  0  0  0  0  0  0
    3.6101   -4.0503   -7.4328 C   0  0  0  0  0  0  0  0  0  0  0  0
    5.5679   -1.9527   -3.0729 C   0  0  0  0  0  0  0  0  0  0  0  0
    6.0701   -1.7780   -1.7970 C   0  0  0  0  0  0  0  0  0  0  0  0
    7.7296   -2.0573   -1.4661 Cl  0  0  0  0  0  0  0  0  0  0  0  0
    5.3576   -1.3578   -0.7333 N   0  0  0  0  0  0  0  0  0  0  0  0
    3.2820   -0.0039    2.0223 H   0  0  0  0  0  0  0  0  0  0  0  0
    4.8205    0.2412    1.1886 H   0  0  0  0  0  0  0  0  0  0  0  0
    4.2948   -1.4156    1.6838 H   0  0  0  0  0  0  0  0  0  0  0  0
    2.4057   -0.9446   -2.3082 H   0  0  0  0  0  0  0  0  0  0  0  0
    4.5338   -3.4254   -5.1249 H   0  0  0  0  0  0  0  0  0  0  0  0
    2.5407   -0.8578   -6.9653 H   0  0  0  0  0  0  0  0  0  0  0  0
    1.3817   -1.3148   -9.0469 H   0  0  0  0  0  0  0  0  0  0  0  0
    1.5564   -3.5177  -10.1167 H   0  0  0  0  0  0  0  0  0  0  0  0
    3.6263   -3.6197  -11.3452 H   0  0  0  0  0  0  0  0  0  0  0  0
    3.3456   -3.8787  -13.7831 H   0  0  0  0  0  0  0  0  0  0  0  0
    2.0429   -7.8328  -16.4367 H   0  0  0  0  0  0  0  0  0  0  0  0
    0.3320   -6.4963  -14.2671 H   0  0  0  0  0  0  0  0  0  0  0  0
   -1.9714   -7.3861  -14.2068 H   0  0  0  0  0  0  0  0  0  0  0  0
   -3.3668   -9.4357  -14.3318 H   0  0  0  0  0  0  0  0  0  0  0  0
   -2.4776  -11.4506  -15.5105 H   0  0  0  0  0  0  0  0  0  0  0  0
   -0.2155  -11.3012  -16.5570 H   0  0  0  0  0  0  0  0  0  0  0  0
    4.0363   -9.0398  -13.2462 H   0  0  0  0  0  0  0  0  0  0  0  0
    3.0421   -7.8607  -10.7329 H   0  0  0  0  0  0  0  0  0  0  0  0
    4.2155   -4.8374   -6.9935 H   0  0  0  0  0  0  0  0  0  0  0  0
    6.2178   -2.2478   -3.8865 H   0  0  0  0  0  0  0  0  0  0  0  0
  1  2  1  0  0  0  0
  1 38  1  0  0  0  0
  1 39  1  0  0  0  0
  1 40  1  0  0  0  0
  2  3  1  0  0  0  0
  3  4  1  0  0  0  0
  3 37  2  0  0  0  0
  4  5  2  0  0  0  0
  4 41  1  0  0  0  0
  5  6  1  0  0  0  0
  5 34  1  0  0  0  0
  6  7  2  0  0  0  0
  6  8  1  0  0  0  0
  8  9  1  0  0  0  0
  8 42  1  0  0  0  0
  9 10  1  0  0  0  0
  9 33  2  0  0  0  0
 10 11  2  0  0  0  0
 10 43  1  0  0  0  0
 11 12  1  0  0  0  0
 11 44  1  0  0  0  0
 12 13  2  0  0  0  0
 12 45  1  0  0  0  0
 13 14  1  0  0  0  0
 13 33  1  0  0  0  0
 14 15  2  0  0  0  0
 14 16  1  0  0  0  0
 16 17  1  0  0  0  0
 16 32  2  0  0  0  0
 17 18  2  0  0  0  0
 17 46  1  0  0  0  0
 18 19  1  0  0  0  0
 18 47  1  0  0  0  0
 19 20  1  0  0  0  0
 19 31  2  0  0  0  0
 20 21  1  0  0  0  0
 20 29  2  0  0  0  0
 21 22  2  0  0  0  0
 21 48  1  0  0  0  0
 22 23  1  0  0  0  0
 22 49  1  0  0  0  0
 23 24  1  0  0  0  0
 23 28  2  0  0  0  0
 24 25  2  0  0  0  0
 24 50  1  0  0  0  0
 25 26  1  0  0  0  0
 25 51  1  0  0  0  0
 26 27  2  0  0  0  0
 26 52  1  0  0  0  0
 27 28  1  0  0  0  0
 27 53  1  0  0  0  0
 29 30  1  0  0  0  0
 30 31  1  0  0  0  0
 30 54  1  0  0  0  0
 31 32  1  0  0  0  0
 32 55  1  0  0  0  0
 33 56  1  0  0  0  0
 34 35  2  0  0  0  0
 34 57  1  0  0  0  0
 35 36  1  0  0  0  0
 35 37  1  0  0  0  0
M  END
$$$$
