CHEMBL206145
 OpenBabel04072215363D

 60 64  0  0  0  0  0  0  0  0999 V2000
    2.0996   -0.8005    2.1131 C   0  0  0  0  0  0  0  0  0  0  0  0
    3.4279   -0.7158    1.4605 C   0  0  0  0  0  0  0  0  0  0  0  0
    4.3393   -1.6984    1.1325 C   0  0  0  0  0  0  0  0  0  0  0  0
    5.3595   -1.0992    0.3434 C   0  0  0  0  0  0  0  0  0  0  0  0
    6.4575   -1.5937   -0.3808 C   0  0  0  0  0  0  0  0  0  0  0  0
    6.7303   -2.9079   -0.3897 F   0  0  0  0  0  0  0  0  0  0  0  0
    7.2069   -0.7148   -1.1671 C   0  0  0  0  0  0  0  0  0  0  0  0
    8.1168   -1.3019   -2.0716 O   0  0  0  0  0  0  0  0  0  0  0  0
    9.2776   -0.6515   -2.4317 C   0  0  0  0  0  0  0  0  0  0  0  0
    9.9027    0.2123   -1.7034 N   0  0  0  0  0  0  0  0  0  0  0  0
   11.0457    0.7500   -2.2330 C   0  0  0  0  0  0  0  0  0  0  0  0
   11.5378    0.5275   -3.4116 N   0  0  0  0  0  0  0  0  0  0  0  0
   10.8475   -0.3687   -4.1421 N   0  0  0  0  0  0  0  0  0  0  0  0
   11.1653   -0.7790   -5.3980 C   0  0  0  0  0  0  0  0  0  0  0  0
   10.3098   -1.8052   -5.7416 C   0  0  0  0  0  0  0  0  0  0  0  0
   10.4038   -2.5757   -6.8650 O   0  0  0  0  0  0  0  0  0  0  0  0
   11.7274   -2.5339   -7.4223 C   0  0  0  0  0  0  0  0  0  0  0  0
   12.0286   -3.7049   -8.3566 C   0  0  0  0  0  0  0  0  0  0  0  0
   13.5316   -3.7377   -8.7612 C   0  0  0  0  0  0  0  0  0  0  0  0
   13.8693   -4.9483   -9.6391 C   0  0  0  0  0  0  0  0  0  0  0  0
   13.7393   -6.2670   -8.8700 C   0  0  0  0  0  0  0  0  0  0  0  0
   14.4416   -6.2914   -7.5745 N   0  0  0  0  0  0  0  0  0  0  0  0
   14.0035   -7.4593   -6.8021 C   0  0  0  0  0  0  0  0  0  0  0  0
   14.2782   -5.0796   -6.7611 C   0  0  0  0  0  0  0  0  0  0  0  0
   14.5034   -3.8042   -7.5705 C   0  0  0  0  0  0  0  0  0  0  0  0
    9.3297   -1.9147   -4.7087 C   0  0  0  0  0  0  0  0  0  0  0  0
    8.1420   -2.8102   -4.6597 C   0  0  0  0  0  0  0  0  0  0  0  0
    9.7353   -1.0240   -3.7217 C   0  0  0  0  0  0  0  0  0  0  0  0
    6.9183    0.6496   -1.2043 C   0  0  0  0  0  0  0  0  0  0  0  0
    5.8628    1.1702   -0.4500 C   0  0  0  0  0  0  0  0  0  0  0  0
    5.0836    0.2682    0.2857 C   0  0  0  0  0  0  0  0  0  0  0  0
    3.9409    0.4807    1.0228 N   0  0  0  0  0  0  0  0  0  0  0  0
    1.8512   -1.8361    2.3656 H   0  0  0  0  0  0  0  0  0  0  0  0
    1.3248   -0.4285    1.4329 H   0  0  0  0  0  0  0  0  0  0  0  0
    2.0725   -0.2037    3.0288 H   0  0  0  0  0  0  0  0  0  0  0  0
    4.2413   -2.7545    1.3507 H   0  0  0  0  0  0  0  0  0  0  0  0
   11.5955    1.4547   -1.5864 H   0  0  0  0  0  0  0  0  0  0  0  0
   12.0124   -0.3409   -5.9040 H   0  0  0  0  0  0  0  0  0  0  0  0
   12.4406   -2.5844   -6.5959 H   0  0  0  0  0  0  0  0  0  0  0  0
   11.8599   -1.5929   -7.9694 H   0  0  0  0  0  0  0  0  0  0  0  0
   11.4043   -3.6262   -9.2550 H   0  0  0  0  0  0  0  0  0  0  0  0
   11.7158   -4.6355   -7.8707 H   0  0  0  0  0  0  0  0  0  0  0  0
   13.7468   -2.8243   -9.3308 H   0  0  0  0  0  0  0  0  0  0  0  0
   14.9017   -4.8483  -10.0039 H   0  0  0  0  0  0  0  0  0  0  0  0
   13.2287   -4.9685  -10.5277 H   0  0  0  0  0  0  0  0  0  0  0  0
   14.1496   -7.0657   -9.4977 H   0  0  0  0  0  0  0  0  0  0  0  0
   12.6725   -6.4884   -8.7398 H   0  0  0  0  0  0  0  0  0  0  0  0
   14.2441   -8.3856   -7.3333 H   0  0  0  0  0  0  0  0  0  0  0  0
   12.9216   -7.4392   -6.6172 H   0  0  0  0  0  0  0  0  0  0  0  0
   14.5095   -7.5021   -5.8314 H   0  0  0  0  0  0  0  0  0  0  0  0
   15.0090   -5.0976   -5.9430 H   0  0  0  0  0  0  0  0  0  0  0  0
   13.2874   -5.0471   -6.2912 H   0  0  0  0  0  0  0  0  0  0  0  0
   15.5382   -3.7854   -7.9402 H   0  0  0  0  0  0  0  0  0  0  0  0
   14.4189   -2.9238   -6.9263 H   0  0  0  0  0  0  0  0  0  0  0  0
    8.0296   -3.3977   -5.5751 H   0  0  0  0  0  0  0  0  0  0  0  0
    7.2286   -2.2167   -4.5312 H   0  0  0  0  0  0  0  0  0  0  0  0
    8.2170   -3.5031   -3.8151 H   0  0  0  0  0  0  0  0  0  0  0  0
    7.4802    1.3216   -1.8466 H   0  0  0  0  0  0  0  0  0  0  0  0
    5.6232    2.2282   -0.4897 H   0  0  0  0  0  0  0  0  0  0  0  0
    3.4953    1.3807    1.1366 H   0  0  0  0  0  0  0  0  0  0  0  0
  1  2  1  0  0  0  0
  1 33  1  0  0  0  0
  1 34  1  0  0  0  0
  1 35  1  0  0  0  0
  2  3  2  0  0  0  0
  2 32  1  0  0  0  0
  3  4  1  0  0  0  0
  3 36  1  0  0  0  0
  4  5  1  0  0  0  0
  4 31  2  0  0  0  0
  5  6  1  0  0  0  0
  5  7  2  0  0  0  0
  7  8  1  0  0  0  0
  7 29  1  0  0  0  0
  8  9  1  0  0  0  0
  9 10  2  0  0  0  0
  9 28  1  0  0  0  0
 10 11  1  0  0  0  0
 11 12  2  0  0  0  0
 11 37  1  0  0  0  0
 12 13  1  0  0  0  0
 13 14  1  0  0  0  0
 13 28  1  0  0  0  0
 14 15  2  0  0  0  0
 14 38  1  0  0  0  0
 15 16  1  0  0  0  0
 15 26  1  0  0  0  0
 16 17  1  0  0  0  0
 17 18  1  0  0  0  0
 17 39  1  0  0  0  0
 17 40  1  0  0  0  0
 18 19  1  0  0  0  0
 18 41  1  0  0  0  0
 18 42  1  0  0  0  0
 19 20  1  0  0  0  0
 19 25  1  0  0  0  0
 19 43  1  0  0  0  0
 20 21  1  0  0  0  0
 20 44  1  0  0  0  0
 20 45  1  0  0  0  0
 21 22  1  0  0  0  0
 21 46  1  0  0  0  0
 21 47  1  0  0  0  0
 22 23  1  0  0  0  0
 22 24  1  0  0  0  0
 23 48  1  0  0  0  0
 23 49  1  0  0  0  0
 23 50  1  0  0  0  0
 24 25  1  0  0  0  0
 24 51  1  0  0  0  0
 24 52  1  0  0  0  0
 25 53  1  0  0  0  0
 25 54  1  0  0  0  0
 26 27  1  0  0  0  0
 26 28  2  0  0  0  0
 27 55  1  0  0  0  0
 27 56  1  0  0  0  0
 27 57  1  0  0  0  0
 29 30  2  0  0  0  0
 29 58  1  0  0  0  0
 30 31  1  0  0  0  0
 30 59  1  0  0  0  0
 31 32  1  0  0  0  0
 32 60  1  0  0  0  0
M  END
$$$$
