CHEMBL2007097
 OpenBabel04072215363D

 16 17  0  0  0  0  0  0  0  0999 V2000
    1.1705    0.0642    0.0643 N   0  0  0  0  0  0  0  0  0  0  0  0
    2.5229    0.1443    0.0523 C   0  0  0  0  0  0  0  0  0  0  0  0
    3.1677    1.2658    0.0466 N   0  0  0  0  0  0  0  0  0  0  0  0
    4.5492    1.2955    0.0396 C   0  0  0  0  0  0  0  0  0  0  0  0
    5.1762    2.3521    0.0333 O   0  0  0  0  0  0  0  0  0  0  0  0
    5.2649    0.1165    0.0397 N   0  0  0  0  0  0  0  0  0  0  0  0
    4.5773   -1.0515    0.0433 C   0  0  0  0  0  0  0  0  0  0  0  0
    5.3835   -2.5180    0.0403 S   0  0  0  0  0  0  0  0  0  0  0  0
    3.8783   -3.3547    0.0471 C   0  0  0  0  0  0  0  0  0  0  0  0
    2.7989   -2.4860    0.0508 C   0  0  0  0  0  0  0  0  0  0  0  0
    3.2169   -1.1211    0.0490 C   0  0  0  0  0  0  0  0  0  0  0  0
    0.6465    0.9298    0.0466 H   0  0  0  0  0  0  0  0  0  0  0  0
    0.6602   -0.8046    0.0415 H   0  0  0  0  0  0  0  0  0  0  0  0
    6.2724    0.1548    0.0351 H   0  0  0  0  0  0  0  0  0  0  0  0
    3.8645   -4.4361    0.0482 H   0  0  0  0  0  0  0  0  0  0  0  0
    1.7728   -2.8300    0.0550 H   0  0  0  0  0  0  0  0  0  0  0  0
  1  2  1  0  0  0  0
  1 12  1  0  0  0  0
  1 13  1  0  0  0  0
  2  3  2  0  0  0  0
  2 11  1  0  0  0  0
  3  4  1  0  0  0  0
  4  5  2  0  0  0  0
  4  6  1  0  0  0  0
  6  7  1  0  0  0  0
  6 14  1  0  0  0  0
  7  8  1  0  0  0  0
  7 11  2  0  0  0  0
  8  9  1  0  0  0  0
  9 10  2  0  0  0  0
  9 15  1  0  0  0  0
 10 11  1  0  0  0  0
 10 16  1  0  0  0  0
M  END
$$$$
