CHEMBL4795322
 OpenBabel04072215383D

 57 61  0  0  0  0  0  0  0  0999 V2000
    7.3111    1.1257   -2.2079 C   0  0  0  0  0  0  0  0  0  0  0  0
    8.3918    0.9137   -1.3100 O   0  0  0  0  0  0  0  0  0  0  0  0
    8.4089   -0.2706   -0.6306 C   0  0  0  0  0  0  0  0  0  0  0  0
    7.4391   -1.2704   -0.6884 C   0  0  0  0  0  0  0  0  0  0  0  0
    7.5910   -2.4394    0.0698 C   0  0  0  0  0  0  0  0  0  0  0  0
    8.7096   -2.6254    0.8957 C   0  0  0  0  0  0  0  0  0  0  0  0
    8.9162   -3.7416    1.7272 N   0  0  0  0  0  0  0  0  0  0  0  0
    8.1710   -4.7048    1.4720 N   0  0  0  0  0  0  0  0  0  0  0  0
    8.2808   -5.7653    2.3165 C   0  0  0  0  0  0  0  0  0  0  0  0
    7.7503   -7.3107    1.7590 S   0  0  0  0  0  0  0  0  0  0  0  0
    8.0655   -7.9730    3.2991 C   0  0  0  0  0  0  0  0  0  0  0  0
    7.7112   -9.2232    3.6665 N   0  0  0  0  0  0  0  0  0  0  0  0
    8.2092  -10.3836    3.0816 N   0  0  0  0  0  0  0  0  0  0  0  0
    7.9255  -11.4194    3.8245 C   0  0  0  0  0  0  0  0  0  0  0  0
    6.7119  -11.4825    4.7625 C   0  0  0  0  0  0  0  0  0  0  0  0
    5.5552  -11.3579    4.4279 O   0  0  0  0  0  0  0  0  0  0  0  0
    7.2817  -11.5750    6.0137 N   0  0  0  0  0  0  0  0  0  0  0  0
    6.5913  -11.1906    7.2147 C   0  0  0  0  0  0  0  0  0  0  0  0
    6.0918  -12.3545    8.0204 C   0  0  0  0  0  0  0  0  0  0  0  0
    6.6092  -12.6042    9.2979 C   0  0  0  0  0  0  0  0  0  0  0  0
    6.1043  -13.6478   10.0700 C   0  0  0  0  0  0  0  0  0  0  0  0
    5.0797  -14.4524    9.5692 C   0  0  0  0  0  0  0  0  0  0  0  0
    4.5647  -14.2180    8.2952 C   0  0  0  0  0  0  0  0  0  0  0  0
    5.0697  -13.1734    7.5225 C   0  0  0  0  0  0  0  0  0  0  0  0
    8.6335  -11.9471    5.9059 C   0  0  0  0  0  0  0  0  0  0  0  0
    9.5695  -12.0931    6.9080 C   0  0  0  0  0  0  0  0  0  0  0  0
   10.8704  -12.4485    6.5321 C   0  0  0  0  0  0  0  0  0  0  0  0
   11.2077  -12.6477    5.1768 C   0  0  0  0  0  0  0  0  0  0  0  0
   12.8141  -13.1172    4.7761 Cl  0  0  0  0  0  0  0  0  0  0  0  0
   10.2788  -12.4347    4.1597 C   0  0  0  0  0  0  0  0  0  0  0  0
    9.0029  -12.0920    4.5587 C   0  0  0  0  0  0  0  0  0  0  0  0
    8.5702   -7.1483    4.1899 N   0  0  0  0  0  0  0  0  0  0  0  0
    8.7421   -5.8978    3.6249 C   0  0  0  0  0  0  0  0  0  0  0  0
    9.3514   -4.8371    4.4776 C   0  0  0  0  0  0  0  0  0  0  0  0
    9.6734   -1.6130    0.9437 C   0  0  0  0  0  0  0  0  0  0  0  0
    9.5237   -0.4478    0.1903 C   0  0  0  0  0  0  0  0  0  0  0  0
    7.5064    2.0578   -2.7467 H   0  0  0  0  0  0  0  0  0  0  0  0
    6.3685    1.2432   -1.6629 H   0  0  0  0  0  0  0  0  0  0  0  0
    7.2424    0.3238   -2.9502 H   0  0  0  0  0  0  0  0  0  0  0  0
    6.5546   -1.1719   -1.2969 H   0  0  0  0  0  0  0  0  0  0  0  0
    6.8169   -3.2008    0.0148 H   0  0  0  0  0  0  0  0  0  0  0  0
    7.8009   -9.2354    4.6873 H   0  0  0  0  0  0  0  0  0  0  0  0
    5.7311  -10.5624    6.9455 H   0  0  0  0  0  0  0  0  0  0  0  0
    7.2531  -10.5456    7.8056 H   0  0  0  0  0  0  0  0  0  0  0  0
    7.3966  -11.9782    9.7092 H   0  0  0  0  0  0  0  0  0  0  0  0
    6.5014  -13.8327   11.0628 H   0  0  0  0  0  0  0  0  0  0  0  0
    4.6759  -15.2588   10.1756 H   0  0  0  0  0  0  0  0  0  0  0  0
    3.7631  -14.8418    7.9073 H   0  0  0  0  0  0  0  0  0  0  0  0
    4.6482  -12.9907    6.5344 H   0  0  0  0  0  0  0  0  0  0  0  0
    9.3320  -11.9125    7.9495 H   0  0  0  0  0  0  0  0  0  0  0  0
   11.6334  -12.5556    7.3010 H   0  0  0  0  0  0  0  0  0  0  0  0
   10.5492  -12.4941    3.1114 H   0  0  0  0  0  0  0  0  0  0  0  0
    9.6085   -5.2304    5.4676 H   0  0  0  0  0  0  0  0  0  0  0  0
    8.6579   -4.0028    4.6189 H   0  0  0  0  0  0  0  0  0  0  0  0
   10.2746   -4.4608    4.0253 H   0  0  0  0  0  0  0  0  0  0  0  0
   10.5450   -1.7307    1.5821 H   0  0  0  0  0  0  0  0  0  0  0  0
   10.2809    0.3287    0.2492 H   0  0  0  0  0  0  0  0  0  0  0  0
  1  2  1  0  0  0  0
  1 37  1  0  0  0  0
  1 38  1  0  0  0  0
  1 39  1  0  0  0  0
  2  3  1  0  0  0  0
  3  4  1  0  0  0  0
  3 36  2  0  0  0  0
  4  5  2  0  0  0  0
  4 40  1  0  0  0  0
  5  6  1  0  0  0  0
  5 41  1  0  0  0  0
  6  7  1  0  0  0  0
  6 35  2  0  0  0  0
  7  8  2  0  0  0  0
  8  9  1  0  0  0  0
  9 10  1  0  0  0  0
  9 33  2  0  0  0  0
 10 11  1  0  0  0  0
 11 12  1  0  0  0  0
 11 32  2  0  0  0  0
 12 13  1  0  0  0  0
 12 42  1  0  0  0  0
 13 14  2  0  0  0  0
 14 15  1  0  0  0  0
 14 31  1  0  0  0  0
 15 16  2  0  0  0  0
 15 17  1  0  0  0  0
 17 18  1  0  0  0  0
 17 25  1  0  0  0  0
 18 19  1  0  0  0  0
 18 43  1  0  0  0  0
 18 44  1  0  0  0  0
 19 20  1  0  0  0  0
 19 24  2  0  0  0  0
 20 21  2  0  0  0  0
 20 45  1  0  0  0  0
 21 22  1  0  0  0  0
 21 46  1  0  0  0  0
 22 23  2  0  0  0  0
 22 47  1  0  0  0  0
 23 24  1  0  0  0  0
 23 48  1  0  0  0  0
 24 49  1  0  0  0  0
 25 26  1  0  0  0  0
 25 31  2  0  0  0  0
 26 27  2  0  0  0  0
 26 50  1  0  0  0  0
 27 28  1  0  0  0  0
 27 51  1  0  0  0  0
 28 29  1  0  0  0  0
 28 30  2  0  0  0  0
 30 31  1  0  0  0  0
 30 52  1  0  0  0  0
 32 33  1  0  0  0  0
 33 34  1  0  0  0  0
 34 53  1  0  0  0  0
 34 54  1  0  0  0  0
 34 55  1  0  0  0  0
 35 36  1  0  0  0  0
 35 56  1  0  0  0  0
 36 57  1  0  0  0  0
M  END
$$$$
