CHEMBL3931533
 OpenBabel04072215373D

 52 55  0  0  0  0  0  0  0  0999 V2000
    2.2463    1.2610   -0.6682 C   0  0  0  0  0  0  0  0  0  0  0  0
    2.6127   -0.1088   -0.0672 C   0  0  0  0  0  0  0  0  0  0  0  0
    3.1449   -1.1713   -1.0395 N   0  0  0  0  0  0  0  0  0  0  0  0
    2.1944   -2.0046   -1.6497 C   0  0  0  0  0  0  0  0  0  0  0  0
    2.4804   -2.4709   -2.9336 C   0  0  0  0  0  0  0  0  0  0  0  0
    1.6599   -3.3327   -3.6340 C   0  0  0  0  0  0  0  0  0  0  0  0
    1.9289   -3.7766   -4.8992 O   0  0  0  0  0  0  0  0  0  0  0  0
    3.1496   -3.2960   -5.4760 C   0  0  0  0  0  0  0  0  0  0  0  0
    0.5462   -3.8339   -2.9866 C   0  0  0  0  0  0  0  0  0  0  0  0
    0.2840   -3.4871   -1.6559 C   0  0  0  0  0  0  0  0  0  0  0  0
   -0.6376   -4.1426   -0.8750 O   0  0  0  0  0  0  0  0  0  0  0  0
   -1.3084   -5.2344   -1.5131 C   0  0  0  0  0  0  0  0  0  0  0  0
    1.0292   -2.4707   -1.0384 C   0  0  0  0  0  0  0  0  0  0  0  0
    4.5818   -1.3519   -1.0938 C   0  0  0  0  0  0  0  0  0  0  0  0
    5.2894   -0.2268   -0.8266 C   0  0  0  0  0  0  0  0  0  0  0  0
    6.6153   -0.3089   -0.7167 C   0  0  0  0  0  0  0  0  0  0  0  0
    7.3374   -1.3841   -1.0442 C   0  0  0  0  0  0  0  0  0  0  0  0
    8.2695   -0.9193   -1.7540 N   0  0  0  0  0  0  0  0  0  0  0  0
    9.3708   -0.8652   -1.0399 C   0  0  0  0  0  0  0  0  0  0  0  0
   10.1946   -1.9202   -0.9073 C   0  0  0  0  0  0  0  0  0  0  0  0
   11.5105   -0.7002   -0.7734 C   0  0  0  0  0  0  0  0  0  0  0  0
   11.6081    0.7479   -0.2501 C   0  0  0  0  0  0  0  0  0  0  0  0
   12.8145    1.3563   -0.2338 N   0  0  0  0  0  0  0  0  0  0  0  0
   13.6667    0.4458   -0.7202 N   0  0  0  0  0  0  0  0  0  0  0  0
   15.1274    0.7573   -0.7622 C   0  0  0  0  0  0  0  0  0  0  0  0
   12.9280   -0.7586   -1.0685 C   0  0  0  0  0  0  0  0  0  0  0  0
    8.9248   -2.8809   -0.9877 N   0  0  0  0  0  0  0  0  0  0  0  0
    7.2088   -2.6627   -1.1314 C   0  0  0  0  0  0  0  0  0  0  0  0
    5.4694   -2.5718   -1.3308 C   0  0  0  0  0  0  0  0  0  0  0  0
    1.8654    1.9649    0.0940 H   0  0  0  0  0  0  0  0  0  0  0  0
    1.4918    1.1579   -1.4528 H   0  0  0  0  0  0  0  0  0  0  0  0
    3.1099    1.7872   -1.0705 H   0  0  0  0  0  0  0  0  0  0  0  0
    1.7108   -0.4376    0.4584 H   0  0  0  0  0  0  0  0  0  0  0  0
    3.3569    0.0555    0.7217 H   0  0  0  0  0  0  0  0  0  0  0  0
    3.4055   -2.1511   -3.3830 H   0  0  0  0  0  0  0  0  0  0  0  0
    3.2629   -3.7487   -6.4624 H   0  0  0  0  0  0  0  0  0  0  0  0
    4.0261   -3.5887   -4.8812 H   0  0  0  0  0  0  0  0  0  0  0  0
    3.1232   -2.2068   -5.6076 H   0  0  0  0  0  0  0  0  0  0  0  0
   -0.0862   -4.5260   -3.5261 H   0  0  0  0  0  0  0  0  0  0  0  0
   -1.9515   -5.7241   -0.7788 H   0  0  0  0  0  0  0  0  0  0  0  0
   -0.6156   -5.9959   -1.9010 H   0  0  0  0  0  0  0  0  0  0  0  0
   -1.9480   -4.8547   -2.3166 H   0  0  0  0  0  0  0  0  0  0  0  0
    0.7268   -2.0987   -0.0641 H   0  0  0  0  0  0  0  0  0  0  0  0
    4.9134    0.7706   -0.7197 H   0  0  0  0  0  0  0  0  0  0  0  0
    7.2217    0.5540   -0.5641 H   0  0  0  0  0  0  0  0  0  0  0  0
    9.4998    0.1671   -0.8049 H   0  0  0  0  0  0  0  0  0  0  0  0
   10.8482    1.4103    0.1637 H   0  0  0  0  0  0  0  0  0  0  0  0
   15.3777    1.8066   -0.4896 H   0  0  0  0  0  0  0  0  0  0  0  0
   15.5423    0.6004   -1.7663 H   0  0  0  0  0  0  0  0  0  0  0  0
   15.6779    0.1269   -0.0507 H   0  0  0  0  0  0  0  0  0  0  0  0
   13.5770   -1.5169   -1.4566 H   0  0  0  0  0  0  0  0  0  0  0  0
    4.7893   -3.4284   -1.6181 H   0  0  0  0  0  0  0  0  0  0  0  0
  1  2  1  0  0  0  0
  1 30  1  0  0  0  0
  1 31  1  0  0  0  0
  1 32  1  0  0  0  0
  2  3  1  0  0  0  0
  2 33  1  0  0  0  0
  2 34  1  0  0  0  0
  3  4  1  0  0  0  0
  3 14  1  0  0  0  0
  4  5  1  0  0  0  0
  4 13  2  0  0  0  0
  5  6  2  0  0  0  0
  5 35  1  0  0  0  0
  6  7  1  0  0  0  0
  6  9  1  0  0  0  0
  7  8  1  0  0  0  0
  8 36  1  0  0  0  0
  8 37  1  0  0  0  0
  8 38  1  0  0  0  0
  9 10  2  0  0  0  0
  9 39  1  0  0  0  0
 10 11  1  0  0  0  0
 10 13  1  0  0  0  0
 11 12  1  0  0  0  0
 12 40  1  0  0  0  0
 12 41  1  0  0  0  0
 12 42  1  0  0  0  0
 13 43  1  0  0  0  0
 14 15  1  0  0  0  0
 14 29  2  0  0  0  0
 15 16  2  0  0  0  0
 15 44  1  0  0  0  0
 16 17  1  0  0  0  0
 16 45  1  0  0  0  0
 17 18  1  0  0  0  0
 17 28  2  0  0  0  0
 18 19  2  0  0  0  0
 19 20  1  0  0  0  0
 19 46  1  0  0  0  0
 20 21  1  0  0  0  0
 20 27  2  0  0  0  0
 21 22  1  0  0  0  0
 21 26  2  0  0  0  0
 22 23  2  0  0  0  0
 22 47  1  0  0  0  0
 23 24  1  0  0  0  0
 24 25  1  0  0  0  0
 24 26  1  0  0  0  0
 25 48  1  0  0  0  0
 25 49  1  0  0  0  0
 25 50  1  0  0  0  0
 26 51  1  0  0  0  0
 27 28  1  0  0  0  0
 28 29  1  0  0  0  0
 29 52  1  0  0  0  0
M  END
$$$$
