CHEMBL1095466
 OpenBabel04072215363D

 42 45  0  0  0  0  0  0  0  0999 V2000
    0.0387   -3.1161    2.9087 C   0  0  0  0  0  0  0  0  0  0  0  0
   -0.1624   -4.0478    1.7446 C   0  0  0  0  0  0  0  0  0  0  0  0
   -0.8440   -5.2570    1.9809 C   0  0  0  0  0  0  0  0  0  0  0  0
   -1.0884   -6.1610    0.9490 C   0  0  0  0  0  0  0  0  0  0  0  0
   -0.6393   -5.8800   -0.3346 C   0  0  0  0  0  0  0  0  0  0  0  0
    0.0601   -4.6989   -0.5828 C   0  0  0  0  0  0  0  0  0  0  0  0
    0.3061   -3.7639    0.4416 C   0  0  0  0  0  0  0  0  0  0  0  0
    0.9949   -2.4693    0.0624 C   0  0  0  0  0  0  0  0  0  0  0  0
    2.4930   -2.4898    0.0777 C   0  0  0  0  0  0  0  0  0  0  0  0
    3.4335   -2.8731   -0.8712 C   0  0  0  0  0  0  0  0  0  0  0  0
    4.7190   -2.4249   -0.4341 C   0  0  0  0  0  0  0  0  0  0  0  0
    6.0472   -2.4317   -0.9081 C   0  0  0  0  0  0  0  0  0  0  0  0
    6.4390   -3.0066   -2.1259 N   0  0  0  0  0  0  0  0  0  0  0  0
    7.7128   -3.5034   -2.4631 C   0  0  0  0  0  0  0  0  0  0  0  0
    8.5767   -4.0289   -1.4866 C   0  0  0  0  0  0  0  0  0  0  0  0
    9.8645   -4.4634   -1.8059 C   0  0  0  0  0  0  0  0  0  0  0  0
   10.3267   -4.3526   -3.1129 C   0  0  0  0  0  0  0  0  0  0  0  0
    9.4905   -3.8153   -4.0891 C   0  0  0  0  0  0  0  0  0  0  0  0
   10.1383   -3.6154   -5.8548 Br  0  0  0  0  0  0  0  0  0  0  0  0
    8.1881   -3.3998   -3.7751 C   0  0  0  0  0  0  0  0  0  0  0  0
    6.9866   -1.7980   -0.1527 N   0  0  0  0  0  0  0  0  0  0  0  0
    6.6274   -1.2096    0.9983 C   0  0  0  0  0  0  0  0  0  0  0  0
    5.4156   -1.1970    1.5667 N   0  0  0  0  0  0  0  0  0  0  0  0
    4.5127   -1.8230    0.8008 C   0  0  0  0  0  0  0  0  0  0  0  0
    3.1948   -1.9513    1.1307 N   0  0  0  0  0  0  0  0  0  0  0  0
   -0.5862   -3.4073    3.7617 H   0  0  0  0  0  0  0  0  0  0  0  0
   -0.2515   -2.0934    2.6531 H   0  0  0  0  0  0  0  0  0  0  0  0
    1.0821   -3.1364    3.2355 H   0  0  0  0  0  0  0  0  0  0  0  0
   -1.2068   -5.4973    2.9790 H   0  0  0  0  0  0  0  0  0  0  0  0
   -1.6335   -7.0797    1.1483 H   0  0  0  0  0  0  0  0  0  0  0  0
   -0.8401   -6.5743   -1.1459 H   0  0  0  0  0  0  0  0  0  0  0  0
    0.3949   -4.4944   -1.5975 H   0  0  0  0  0  0  0  0  0  0  0  0
    0.6319   -1.6519    0.6962 H   0  0  0  0  0  0  0  0  0  0  0  0
    0.6675   -2.1813   -0.9462 H   0  0  0  0  0  0  0  0  0  0  0  0
    3.2104   -3.3529   -1.8155 H   0  0  0  0  0  0  0  0  0  0  0  0
    5.7006   -3.1821   -2.7909 H   0  0  0  0  0  0  0  0  0  0  0  0
    8.2384   -4.1182   -0.4566 H   0  0  0  0  0  0  0  0  0  0  0  0
   10.5025   -4.8761   -1.0293 H   0  0  0  0  0  0  0  0  0  0  0  0
   11.3363   -4.6723   -3.3532 H   0  0  0  0  0  0  0  0  0  0  0  0
    7.5639   -2.9592   -4.5456 H   0  0  0  0  0  0  0  0  0  0  0  0
    7.4141   -0.6776    1.5235 H   0  0  0  0  0  0  0  0  0  0  0  0
    2.8052   -1.5972    1.9915 H   0  0  0  0  0  0  0  0  0  0  0  0
  1  2  1  0  0  0  0
  1 26  1  0  0  0  0
  1 27  1  0  0  0  0
  1 28  1  0  0  0  0
  2  3  1  0  0  0  0
  2  7  2  0  0  0  0
  3  4  2  0  0  0  0
  3 29  1  0  0  0  0
  4  5  1  0  0  0  0
  4 30  1  0  0  0  0
  5  6  2  0  0  0  0
  5 31  1  0  0  0  0
  6  7  1  0  0  0  0
  6 32  1  0  0  0  0
  7  8  1  0  0  0  0
  8  9  1  0  0  0  0
  8 33  1  0  0  0  0
  8 34  1  0  0  0  0
  9 10  2  0  0  0  0
  9 25  1  0  0  0  0
 10 11  1  0  0  0  0
 10 35  1  0  0  0  0
 11 12  1  0  0  0  0
 11 24  2  0  0  0  0
 12 13  1  0  0  0  0
 12 21  2  0  0  0  0
 13 14  1  0  0  0  0
 13 36  1  0  0  0  0
 14 15  1  0  0  0  0
 14 20  2  0  0  0  0
 15 16  2  0  0  0  0
 15 37  1  0  0  0  0
 16 17  1  0  0  0  0
 16 38  1  0  0  0  0
 17 18  2  0  0  0  0
 17 39  1  0  0  0  0
 18 19  1  0  0  0  0
 18 20  1  0  0  0  0
 20 40  1  0  0  0  0
 21 22  1  0  0  0  0
 22 23  2  0  0  0  0
 22 41  1  0  0  0  0
 23 24  1  0  0  0  0
 24 25  1  0  0  0  0
 25 42  1  0  0  0  0
M  END
$$$$
