CHEMBL3986631
 OpenBabel04072215373D

 61 65  0  0  0  0  0  0  0  0999 V2000
    2.5404   -4.5026    3.3092 C   0  0  0  0  0  0  0  0  0  0  0  0
    2.2222   -4.1780    1.9436 O   0  0  0  0  0  0  0  0  0  0  0  0
    3.0769   -3.3364    1.3056 C   0  0  0  0  0  0  0  0  0  0  0  0
    2.6442   -2.5133    0.3331 C   0  0  0  0  0  0  0  0  0  0  0  0
    3.4477   -1.4693   -0.0956 C   0  0  0  0  0  0  0  0  0  0  0  0
    3.0187   -0.5532   -1.0101 O   0  0  0  0  0  0  0  0  0  0  0  0
    1.6861   -0.7749   -1.4677 C   0  0  0  0  0  0  0  0  0  0  0  0
    4.7220   -1.2686    0.4494 C   0  0  0  0  0  0  0  0  0  0  0  0
    5.2040   -2.0556    1.4812 C   0  0  0  0  0  0  0  0  0  0  0  0
    6.4710   -1.8000    2.1128 N   0  0  0  0  0  0  0  0  0  0  0  0
    6.9366   -0.3173    2.1600 C   0  0  0  0  0  0  0  0  0  0  0  0
    7.8078    0.3146    1.0154 C   0  0  0  0  0  0  0  0  0  0  0  0
    8.4693    0.6351    0.0316 C   0  0  0  0  0  0  0  0  0  0  0  0
    9.2655    0.8166   -1.2184 C   0  0  0  0  0  0  0  0  0  0  0  0
    9.5650   -0.1106   -2.2143 C   0  0  0  0  0  0  0  0  0  0  0  0
   10.5080    0.0034   -3.2348 N   0  0  0  0  0  0  0  0  0  0  0  0
   11.0264    1.2135   -3.3832 C   0  0  0  0  0  0  0  0  0  0  0  0
   11.9801    1.4595   -4.3499 N   0  0  0  0  0  0  0  0  0  0  0  0
   10.4919    2.2145   -2.5766 C   0  0  0  0  0  0  0  0  0  0  0  0
    9.6892    2.0513   -1.4637 N   0  0  0  0  0  0  0  0  0  0  0  0
    7.5552   -2.8046    2.1543 C   0  0  0  0  0  0  0  0  0  0  0  0
    8.3844   -2.7482    3.2354 C   0  0  0  0  0  0  0  0  0  0  0  0
    9.4472   -3.5902    3.2604 C   0  0  0  0  0  0  0  0  0  0  0  0
    9.8387   -4.4070    2.2615 C   0  0  0  0  0  0  0  0  0  0  0  0
   11.0762   -4.1847    2.2667 N   0  0  0  0  0  0  0  0  0  0  0  0
   11.6939   -5.1247    2.9443 C   0  0  0  0  0  0  0  0  0  0  0  0
   11.9926   -6.3084    2.3869 C   0  0  0  0  0  0  0  0  0  0  0  0
   13.5070   -6.2182    3.4143 C   0  0  0  0  0  0  0  0  0  0  0  0
   14.4582   -5.1465    4.0166 C   0  0  0  0  0  0  0  0  0  0  0  0
   15.4567   -5.5587    4.8576 N   0  0  0  0  0  0  0  0  0  0  0  0
   15.3100   -6.8875    4.9551 N   0  0  0  0  0  0  0  0  0  0  0  0
   16.1571   -7.6775    5.9095 C   0  0  0  0  0  0  0  0  0  0  0  0
   14.2236   -7.2954    4.0839 C   0  0  0  0  0  0  0  0  0  0  0  0
   10.6753   -6.2026    1.4606 N   0  0  0  0  0  0  0  0  0  0  0  0
    9.3444   -5.0731    1.2862 C   0  0  0  0  0  0  0  0  0  0  0  0
    7.9911   -3.9021    1.1473 C   0  0  0  0  0  0  0  0  0  0  0  0
    4.3748   -3.1479    1.7385 C   0  0  0  0  0  0  0  0  0  0  0  0
    1.7153   -5.0955    3.7233 H   0  0  0  0  0  0  0  0  0  0  0  0
    2.6363   -3.6024    3.9352 H   0  0  0  0  0  0  0  0  0  0  0  0
    3.4321   -5.1139    3.3572 H   0  0  0  0  0  0  0  0  0  0  0  0
    1.6671   -2.7099   -0.0550 H   0  0  0  0  0  0  0  0  0  0  0  0
    1.4460    0.0119   -2.1776 H   0  0  0  0  0  0  0  0  0  0  0  0
    0.9565   -0.7260   -0.6459 H   0  0  0  0  0  0  0  0  0  0  0  0
    1.6112   -1.7394   -1.9862 H   0  0  0  0  0  0  0  0  0  0  0  0
    5.3530   -0.4914    0.0404 H   0  0  0  0  0  0  0  0  0  0  0  0
    7.4543   -0.1067    3.1092 H   0  0  0  0  0  0  0  0  0  0  0  0
    5.9872    0.2210    2.1737 H   0  0  0  0  0  0  0  0  0  0  0  0
    8.9500   -0.9820   -2.3313 H   0  0  0  0  0  0  0  0  0  0  0  0
   12.3961    0.6873   -4.8544 H   0  0  0  0  0  0  0  0  0  0  0  0
   12.3789    2.3789   -4.4663 H   0  0  0  0  0  0  0  0  0  0  0  0
   10.6688    3.2462   -2.8298 H   0  0  0  0  0  0  0  0  0  0  0  0
    8.3976   -1.9977    4.0217 H   0  0  0  0  0  0  0  0  0  0  0  0
   10.1781   -3.4968    4.0562 H   0  0  0  0  0  0  0  0  0  0  0  0
   12.0477   -4.7008    3.8662 H   0  0  0  0  0  0  0  0  0  0  0  0
   14.5115   -4.0633    3.9104 H   0  0  0  0  0  0  0  0  0  0  0  0
   16.9468   -7.0857    6.4247 H   0  0  0  0  0  0  0  0  0  0  0  0
   16.6778   -8.5080    5.4098 H   0  0  0  0  0  0  0  0  0  0  0  0
   15.5282   -8.0943    6.7085 H   0  0  0  0  0  0  0  0  0  0  0  0
   14.1070   -8.3580    4.0782 H   0  0  0  0  0  0  0  0  0  0  0  0
    7.3424   -3.6815    0.2531 H   0  0  0  0  0  0  0  0  0  0  0  0
    4.7966   -4.0312    2.1304 H   0  0  0  0  0  0  0  0  0  0  0  0
  1  2  1  0  0  0  0
  1 38  1  0  0  0  0
  1 39  1  0  0  0  0
  1 40  1  0  0  0  0
  2  3  1  0  0  0  0
  3  4  1  0  0  0  0
  3 37  2  0  0  0  0
  4  5  2  0  0  0  0
  4 41  1  0  0  0  0
  5  6  1  0  0  0  0
  5  8  1  0  0  0  0
  6  7  1  0  0  0  0
  7 42  1  0  0  0  0
  7 43  1  0  0  0  0
  7 44  1  0  0  0  0
  8  9  2  0  0  0  0
  8 45  1  0  0  0  0
  9 10  1  0  0  0  0
  9 37  1  0  0  0  0
 10 11  1  0  0  0  0
 10 21  1  0  0  0  0
 11 12  1  0  0  0  0
 11 46  1  0  0  0  0
 11 47  1  0  0  0  0
 12 13  3  0  0  0  0
 13 14  1  0  0  0  0
 14 15  1  0  0  0  0
 14 20  2  0  0  0  0
 15 16  2  0  0  0  0
 15 48  1  0  0  0  0
 16 17  1  0  0  0  0
 17 18  1  0  0  0  0
 17 19  2  0  0  0  0
 18 49  1  0  0  0  0
 18 50  1  0  0  0  0
 19 20  1  0  0  0  0
 19 51  1  0  0  0  0
 21 22  1  0  0  0  0
 21 36  2  0  0  0  0
 22 23  2  0  0  0  0
 22 52  1  0  0  0  0
 23 24  1  0  0  0  0
 23 53  1  0  0  0  0
 24 25  1  0  0  0  0
 24 35  2  0  0  0  0
 25 26  2  0  0  0  0
 26 27  1  0  0  0  0
 26 54  1  0  0  0  0
 27 28  1  0  0  0  0
 27 34  2  0  0  0  0
 28 29  1  0  0  0  0
 28 33  2  0  0  0  0
 29 30  2  0  0  0  0
 29 55  1  0  0  0  0
 30 31  1  0  0  0  0
 31 32  1  0  0  0  0
 31 33  1  0  0  0  0
 32 56  1  0  0  0  0
 32 57  1  0  0  0  0
 32 58  1  0  0  0  0
 33 59  1  0  0  0  0
 34 35  1  0  0  0  0
 35 36  1  0  0  0  0
 36 60  1  0  0  0  0
 37 61  1  0  0  0  0
M  END
$$$$
