CHEMBL3940661
 OpenBabel04072215373D

 41 43  0  0  0  0  0  0  0  0999 V2000
    7.0711   -0.8572    8.9941 C   0  0  0  0  0  0  0  0  0  0  0  0
    8.0792    0.2686    8.0587 S   0  0  3  0  0  0  0  0  0  0  0  0
    8.6942    1.2757    9.0570 N   0  0  0  0  0  0  0  0  0  0  0  0
    8.8710   -0.5142    7.1367 O   0  0  0  0  0  0  0  0  0  0  0  0
    6.8640    1.1434    7.0865 C   0  0  0  0  0  0  0  0  0  0  0  0
    6.2937    2.2992    7.6110 C   0  0  0  0  0  0  0  0  0  0  0  0
    5.3723    3.0211    6.8552 C   0  0  0  0  0  0  0  0  0  0  0  0
    5.0115    2.6138    5.5619 C   0  0  0  0  0  0  0  0  0  0  0  0
    4.0940    3.3474    4.7888 N   0  0  0  0  0  0  0  0  0  0  0  0
    3.9521    4.7418    4.8162 C   0  0  0  0  0  0  0  0  0  0  0  0
    2.7459    5.2279    4.5172 N   0  0  0  0  0  0  0  0  0  0  0  0
    2.6708    6.5774    4.4030 C   0  0  0  0  0  0  0  0  0  0  0  0
    3.7362    7.4359    4.5377 C   0  0  0  0  0  0  0  0  0  0  0  0
    3.4365    9.2428    4.0847 Br  0  0  0  0  0  0  0  0  0  0  0  0
    4.9458    6.8457    4.9060 C   0  0  0  0  0  0  0  0  0  0  0  0
    6.1387    7.5743    5.0201 N   0  0  0  0  0  0  0  0  0  0  0  0
    7.4720    7.1260    4.8567 C   0  0  0  0  0  0  0  0  0  0  0  0
    7.7798    5.8145    4.4854 C   0  0  0  0  0  0  0  0  0  0  0  0
    9.0866    5.3337    4.5159 C   0  0  0  0  0  0  0  0  0  0  0  0
   10.1226    6.1813    4.8918 C   0  0  0  0  0  0  0  0  0  0  0  0
    9.8549    7.5184    5.1767 C   0  0  0  0  0  0  0  0  0  0  0  0
    8.5356    7.9887    5.1597 C   0  0  0  0  0  0  0  0  0  0  0  0
    4.9965    5.5026    5.0875 N   0  0  0  0  0  0  0  0  0  0  0  0
    5.5610    1.4232    5.0651 C   0  0  0  0  0  0  0  0  0  0  0  0
    6.4976    0.6931    5.8158 C   0  0  0  0  0  0  0  0  0  0  0  0
    7.7254   -1.4623    9.6254 H   0  0  0  0  0  0  0  0  0  0  0  0
    6.5305   -1.5059    8.3010 H   0  0  0  0  0  0  0  0  0  0  0  0
    6.3710   -0.2906    9.6106 H   0  0  0  0  0  0  0  0  0  0  0  0
    9.4758    0.8533    9.5579 H   0  0  0  0  0  0  0  0  0  0  0  0
    6.5633    2.6550    8.6033 H   0  0  0  0  0  0  0  0  0  0  0  0
    4.9629    3.9308    7.2878 H   0  0  0  0  0  0  0  0  0  0  0  0
    3.1771    2.9290    4.7097 H   0  0  0  0  0  0  0  0  0  0  0  0
    1.6814    6.9465    4.1334 H   0  0  0  0  0  0  0  0  0  0  0  0
    6.0276    8.5705    5.0703 H   0  0  0  0  0  0  0  0  0  0  0  0
    6.9939    5.1240    4.1919 H   0  0  0  0  0  0  0  0  0  0  0  0
    9.2826    4.2874    4.2950 H   0  0  0  0  0  0  0  0  0  0  0  0
   11.1332    5.7942    4.9786 H   0  0  0  0  0  0  0  0  0  0  0  0
   10.6667    8.1825    5.4618 H   0  0  0  0  0  0  0  0  0  0  0  0
    8.3472    9.0248    5.4247 H   0  0  0  0  0  0  0  0  0  0  0  0
    5.3104    1.0852    4.0610 H   0  0  0  0  0  0  0  0  0  0  0  0
    6.9321   -0.2105    5.3958 H   0  0  0  0  0  0  0  0  0  0  0  0
  1  2  1  0  0  0  0
  1 26  1  0  0  0  0
  1 27  1  0  0  0  0
  1 28  1  0  0  0  0
  2  3  2  0  0  0  0
  2  4  2  0  0  0  0
  2  5  1  0  0  0  0
  3 29  1  0  0  0  0
  5  6  1  0  0  0  0
  5 25  2  0  0  0  0
  6  7  2  0  0  0  0
  6 30  1  0  0  0  0
  7  8  1  0  0  0  0
  7 31  1  0  0  0  0
  8  9  1  0  0  0  0
  8 24  2  0  0  0  0
  9 10  1  0  0  0  0
  9 32  1  0  0  0  0
 10 11  1  0  0  0  0
 10 23  2  0  0  0  0
 11 12  2  0  0  0  0
 12 13  1  0  0  0  0
 12 33  1  0  0  0  0
 13 14  1  0  0  0  0
 13 15  2  0  0  0  0
 15 16  1  0  0  0  0
 15 23  1  0  0  0  0
 16 17  1  0  0  0  0
 16 34  1  0  0  0  0
 17 18  1  0  0  0  0
 17 22  2  0  0  0  0
 18 19  2  0  0  0  0
 18 35  1  0  0  0  0
 19 20  1  0  0  0  0
 19 36  1  0  0  0  0
 20 21  2  0  0  0  0
 20 37  1  0  0  0  0
 21 22  1  0  0  0  0
 21 38  1  0  0  0  0
 22 39  1  0  0  0  0
 24 25  1  0  0  0  0
 24 40  1  0  0  0  0
 25 41  1  0  0  0  0
M  END
$$$$
