CHEMBL1976420
 OpenBabel04072215363D

 40 42  0  0  0  0  0  0  0  0999 V2000
    0.9053   -3.0733   -4.0057 C   0  0  0  0  0  0  0  0  0  0  0  0
    1.8792   -1.9203   -3.8349 C   0  0  0  0  0  0  0  0  0  0  0  0
    2.7372   -1.9189   -2.5990 C   0  0  0  0  0  0  0  0  0  0  0  0
    3.6875   -0.9466   -2.2160 C   0  0  0  0  0  0  0  0  0  0  0  0
    4.1321    0.3282   -2.8355 C   0  0  0  0  0  0  0  0  0  0  0  0
    3.6366    0.7609   -4.0714 C   0  0  0  0  0  0  0  0  0  0  0  0
    4.0555    1.9542   -4.6726 C   0  0  0  0  0  0  0  0  0  0  0  0
    4.9926    2.7836   -4.0559 C   0  0  0  0  0  0  0  0  0  0  0  0
    5.4712    4.0735   -4.7143 C   0  0  0  0  0  0  0  0  0  0  0  0
    5.1752    5.2943   -3.8353 C   0  0  0  0  0  0  0  0  0  0  0  0
    6.9644    3.9838   -5.0420 C   0  0  0  0  0  0  0  0  0  0  0  0
    4.7997    4.2920   -5.9629 O   0  0  0  0  0  0  0  0  0  0  0  0
    5.4996    2.3647   -2.8170 C   0  0  0  0  0  0  0  0  0  0  0  0
    5.0792    1.1626   -2.2214 C   0  0  0  0  0  0  0  0  0  0  0  0
    4.2371   -1.4044   -1.0257 N   0  0  0  0  0  0  0  0  0  0  0  0
    3.6876   -2.5865   -0.6409 C   0  0  0  0  0  0  0  0  0  0  0  0
    4.0154   -3.2889    0.4651 N   0  0  0  0  0  0  0  0  0  0  0  0
    3.2805   -4.4244    0.5495 C   0  0  0  0  0  0  0  0  0  0  0  0
    2.3183   -4.7994   -0.3775 C   0  0  0  0  0  0  0  0  0  0  0  0
    2.0129   -4.0755   -1.4753 N   0  0  0  0  0  0  0  0  0  0  0  0
    2.7414   -2.9326   -1.5910 C   0  0  0  0  0  0  0  0  0  0  0  0
    0.3647   -2.9673   -4.9518 H   0  0  0  0  0  0  0  0  0  0  0  0
    0.1651   -3.0900   -3.1994 H   0  0  0  0  0  0  0  0  0  0  0  0
    1.4251   -4.0362   -4.0312 H   0  0  0  0  0  0  0  0  0  0  0  0
    1.2916   -0.9946   -3.8526 H   0  0  0  0  0  0  0  0  0  0  0  0
    2.5412   -1.9258   -4.7095 H   0  0  0  0  0  0  0  0  0  0  0  0
    2.9120    0.1876   -4.6311 H   0  0  0  0  0  0  0  0  0  0  0  0
    3.6386    2.2035   -5.6457 H   0  0  0  0  0  0  0  0  0  0  0  0
    5.7022    5.2589   -2.8767 H   0  0  0  0  0  0  0  0  0  0  0  0
    4.1007    5.3734   -3.6283 H   0  0  0  0  0  0  0  0  0  0  0  0
    5.4592    6.2195   -4.3500 H   0  0  0  0  0  0  0  0  0  0  0  0
    7.5828    3.8948   -4.1427 H   0  0  0  0  0  0  0  0  0  0  0  0
    7.2960    4.8666   -5.6003 H   0  0  0  0  0  0  0  0  0  0  0  0
    7.1707    3.1164   -5.6813 H   0  0  0  0  0  0  0  0  0  0  0  0
    3.8637    4.4579   -5.7591 H   0  0  0  0  0  0  0  0  0  0  0  0
    6.2452    2.9635   -2.2978 H   0  0  0  0  0  0  0  0  0  0  0  0
    5.5277    0.9094   -1.2657 H   0  0  0  0  0  0  0  0  0  0  0  0
    4.9606   -0.9497   -0.4919 H   0  0  0  0  0  0  0  0  0  0  0  0
    3.4896   -5.0525    1.4102 H   0  0  0  0  0  0  0  0  0  0  0  0
    1.7548   -5.7176   -0.2599 H   0  0  0  0  0  0  0  0  0  0  0  0
  1  2  1  0  0  0  0
  1 22  1  0  0  0  0
  1 23  1  0  0  0  0
  1 24  1  0  0  0  0
  2  3  1  0  0  0  0
  2 25  1  0  0  0  0
  2 26  1  0  0  0  0
  3  4  2  0  0  0  0
  3 21  1  0  0  0  0
  4  5  1  0  0  0  0
  4 15  1  0  0  0  0
  5  6  1  0  0  0  0
  5 14  2  0  0  0  0
  6  7  2  0  0  0  0
  6 27  1  0  0  0  0
  7  8  1  0  0  0  0
  7 28  1  0  0  0  0
  8  9  1  0  0  0  0
  8 13  2  0  0  0  0
  9 10  1  0  0  0  0
  9 11  1  0  0  0  0
  9 12  1  0  0  0  0
 10 29  1  0  0  0  0
 10 30  1  0  0  0  0
 10 31  1  0  0  0  0
 11 32  1  0  0  0  0
 11 33  1  0  0  0  0
 11 34  1  0  0  0  0
 12 35  1  0  0  0  0
 13 14  1  0  0  0  0
 13 36  1  0  0  0  0
 14 37  1  0  0  0  0
 15 16  1  0  0  0  0
 15 38  1  0  0  0  0
 16 17  1  0  0  0  0
 16 21  2  0  0  0  0
 17 18  2  0  0  0  0
 18 19  1  0  0  0  0
 18 39  1  0  0  0  0
 19 20  2  0  0  0  0
 19 40  1  0  0  0  0
 20 21  1  0  0  0  0
M  END
$$$$
