CHEMBL3818404
 OpenBabel04072215373D

 37 40  0  0  0  0  0  0  0  0999 V2000
    0.9551    0.8882   -2.9084 Cl  0  0  0  0  0  0  0  0  0  0  0  0
   -0.3883    0.1880   -2.0815 C   0  0  0  0  0  0  0  0  0  0  0  0
   -1.3276    1.0532   -1.5225 C   0  0  0  0  0  0  0  0  0  0  0  0
   -2.4376    0.5375   -0.8525 C   0  0  0  0  0  0  0  0  0  0  0  0
   -2.6425   -0.8446   -0.7458 C   0  0  0  0  0  0  0  0  0  0  0  0
   -3.7566   -1.3892   -0.0786 N   0  0  0  0  0  0  0  0  0  0  0  0
   -5.0262   -0.7989   -0.0338 C   0  0  0  0  0  0  0  0  0  0  0  0
   -5.7654   -1.0326    1.0558 N   0  0  0  0  0  0  0  0  0  0  0  0
   -6.9358   -0.3762    1.1310 C   0  0  0  0  0  0  0  0  0  0  0  0
   -7.3805    0.5070    0.1759 C   0  0  0  0  0  0  0  0  0  0  0  0
   -6.5836    0.6559   -0.9323 C   0  0  0  0  0  0  0  0  0  0  0  0
   -7.0153    1.4920   -1.9886 N   0  0  0  0  0  0  0  0  0  0  0  0
   -6.5650    1.4017   -3.3261 C   0  0  0  0  0  0  0  0  0  0  0  0
   -6.3758    0.1419   -3.9176 C   0  0  0  0  0  0  0  0  0  0  0  0
   -5.8835   -0.0151   -5.2158 C   0  0  0  0  0  0  0  0  0  0  0  0
   -5.5763    1.1521   -5.9104 C   0  0  0  0  0  0  0  0  0  0  0  0
   -5.0449    1.3515   -7.1568 N   0  0  0  0  0  0  0  0  0  0  0  0
   -4.8834    2.6458   -7.4835 N   0  0  0  0  0  0  0  0  0  0  0  0
   -5.3238    3.2935   -6.4009 C   0  0  0  0  0  0  0  0  0  0  0  0
   -5.7679    2.4222   -5.3797 C   0  0  0  0  0  0  0  0  0  0  0  0
   -6.2866    2.5581   -4.0744 C   0  0  0  0  0  0  0  0  0  0  0  0
   -5.4173   -0.0022   -1.0378 N   0  0  0  0  0  0  0  0  0  0  0  0
   -1.6730   -1.7060   -1.2714 C   0  0  0  0  0  0  0  0  0  0  0  0
   -0.5630   -1.1961   -1.9556 C   0  0  0  0  0  0  0  0  0  0  0  0
    0.5569   -2.3294   -2.6281 Cl  0  0  0  0  0  0  0  0  0  0  0  0
   -1.2122    2.1303   -1.6124 H   0  0  0  0  0  0  0  0  0  0  0  0
   -3.1600    1.2365   -0.4346 H   0  0  0  0  0  0  0  0  0  0  0  0
   -3.5519   -1.6907    0.8674 H   0  0  0  0  0  0  0  0  0  0  0  0
   -7.5288   -0.5853    2.0168 H   0  0  0  0  0  0  0  0  0  0  0  0
   -8.3291    1.0122    0.2703 H   0  0  0  0  0  0  0  0  0  0  0  0
   -7.2232    2.4312   -1.6744 H   0  0  0  0  0  0  0  0  0  0  0  0
   -6.6081   -0.7547   -3.3452 H   0  0  0  0  0  0  0  0  0  0  0  0
   -5.7284   -1.0023   -5.6364 H   0  0  0  0  0  0  0  0  0  0  0  0
   -4.7595    0.6445   -7.8248 H   0  0  0  0  0  0  0  0  0  0  0  0
   -5.2937    4.3747   -6.3937 H   0  0  0  0  0  0  0  0  0  0  0  0
   -6.4225    3.5479   -3.6519 H   0  0  0  0  0  0  0  0  0  0  0  0
   -1.8129   -2.7815   -1.1913 H   0  0  0  0  0  0  0  0  0  0  0  0
  1  2  1  0  0  0  0
  2  3  1  0  0  0  0
  2 24  2  0  0  0  0
  3  4  2  0  0  0  0
  3 26  1  0  0  0  0
  4  5  1  0  0  0  0
  4 27  1  0  0  0  0
  5  6  1  0  0  0  0
  5 23  2  0  0  0  0
  6  7  1  0  0  0  0
  6 28  1  0  0  0  0
  7  8  1  0  0  0  0
  7 22  2  0  0  0  0
  8  9  2  0  0  0  0
  9 10  1  0  0  0  0
  9 29  1  0  0  0  0
 10 11  2  0  0  0  0
 10 30  1  0  0  0  0
 11 12  1  0  0  0  0
 11 22  1  0  0  0  0
 12 13  1  0  0  0  0
 12 31  1  0  0  0  0
 13 14  1  0  0  0  0
 13 21  2  0  0  0  0
 14 15  2  0  0  0  0
 14 32  1  0  0  0  0
 15 16  1  0  0  0  0
 15 33  1  0  0  0  0
 16 17  1  0  0  0  0
 16 20  2  0  0  0  0
 17 18  1  0  0  0  0
 17 34  1  0  0  0  0
 18 19  2  0  0  0  0
 19 20  1  0  0  0  0
 19 35  1  0  0  0  0
 20 21  1  0  0  0  0
 21 36  1  0  0  0  0
 23 24  1  0  0  0  0
 23 37  1  0  0  0  0
 24 25  1  0  0  0  0
M  END
$$$$
