CHEMBL101461
 OpenBabel04072215353D

 44 47  0  0  0  0  0  0  0  0999 V2000
    1.3790   -0.1126   -2.2985 C   0  0  0  0  0  0  0  0  0  0  0  0
    2.8824   -0.1597   -2.3447 C   0  0  0  0  0  0  0  0  0  0  0  0
    3.4978    0.2823   -3.3115 O   0  0  0  0  0  0  0  0  0  0  0  0
    3.4208   -0.6995   -1.1937 N   0  0  0  0  0  0  0  0  0  0  0  0
    4.7773   -0.7861   -0.9881 C   0  0  0  0  0  0  0  0  0  0  0  0
    5.6164   -0.6543   -2.0491 O   0  0  0  0  0  0  0  0  0  0  0  0
    6.8651   -0.8720   -1.5433 C   0  0  0  0  0  0  0  0  0  0  0  0
    7.9510   -0.8357   -2.5074 C   0  0  0  0  0  0  0  0  0  0  0  0
    9.2709   -0.8867   -2.0880 C   0  0  0  0  0  0  0  0  0  0  0  0
   10.3334   -0.8670   -2.9263 N   0  0  0  0  0  0  0  0  0  0  0  0
   10.0581   -0.7935   -4.2539 C   0  0  0  0  0  0  0  0  0  0  0  0
    8.7794   -0.7462   -4.8149 C   0  0  0  0  0  0  0  0  0  0  0  0
    8.5468   -0.6904   -6.2769 C   0  0  0  0  0  0  0  0  0  0  0  0
    9.4278   -1.3041   -7.1872 C   0  0  0  0  0  0  0  0  0  0  0  0
    9.2017   -1.2642   -8.5682 C   0  0  0  0  0  0  0  0  0  0  0  0
    8.0805   -0.6168   -9.0730 C   0  0  0  0  0  0  0  0  0  0  0  0
    7.1900   -0.0029   -8.1994 C   0  0  0  0  0  0  0  0  0  0  0  0
    7.4256   -0.0349   -6.8202 C   0  0  0  0  0  0  0  0  0  0  0  0
    7.7210   -0.7684   -3.8902 C   0  0  0  0  0  0  0  0  0  0  0  0
    6.8882   -1.1054   -0.2448 N   0  0  0  0  0  0  0  0  0  0  0  0
    5.5583   -1.0441    0.1242 C   0  0  0  0  0  0  0  0  0  0  0  0
    5.0977   -1.2526    1.4852 C   0  0  0  0  0  0  0  0  0  0  0  0
    3.9691   -0.5894    1.9915 C   0  0  0  0  0  0  0  0  0  0  0  0
    3.4938   -0.8708    3.2729 C   0  0  0  0  0  0  0  0  0  0  0  0
    4.1611   -1.7936    4.0757 C   0  0  0  0  0  0  0  0  0  0  0  0
    5.3182   -2.4128    3.6071 C   0  0  0  0  0  0  0  0  0  0  0  0
    5.7874   -2.1404    2.3194 C   0  0  0  0  0  0  0  0  0  0  0  0
    1.0027    0.3805   -3.2002 H   0  0  0  0  0  0  0  0  0  0  0  0
    1.0502    0.4612   -1.4266 H   0  0  0  0  0  0  0  0  0  0  0  0
    0.9749   -1.1260   -2.2541 H   0  0  0  0  0  0  0  0  0  0  0  0
    2.8108   -0.9738   -0.4359 H   0  0  0  0  0  0  0  0  0  0  0  0
    9.5245   -0.9458   -1.0318 H   0  0  0  0  0  0  0  0  0  0  0  0
   10.9484   -0.7663   -4.8773 H   0  0  0  0  0  0  0  0  0  0  0  0
   10.3044   -1.8450   -6.8349 H   0  0  0  0  0  0  0  0  0  0  0  0
    9.9008   -1.7482   -9.2454 H   0  0  0  0  0  0  0  0  0  0  0  0
    7.8979   -0.5919  -10.1448 H   0  0  0  0  0  0  0  0  0  0  0  0
    6.3082    0.5021   -8.5851 H   0  0  0  0  0  0  0  0  0  0  0  0
    6.7090    0.4718   -6.1747 H   0  0  0  0  0  0  0  0  0  0  0  0
    6.6924   -0.7529   -4.2492 H   0  0  0  0  0  0  0  0  0  0  0  0
    3.4559    0.1705    1.4070 H   0  0  0  0  0  0  0  0  0  0  0  0
    2.6068   -0.3664    3.6476 H   0  0  0  0  0  0  0  0  0  0  0  0
    3.7877   -2.0190    5.0708 H   0  0  0  0  0  0  0  0  0  0  0  0
    5.8557   -3.1137    4.2423 H   0  0  0  0  0  0  0  0  0  0  0  0
    6.6931   -2.6319    1.9676 H   0  0  0  0  0  0  0  0  0  0  0  0
  1  2  1  0  0  0  0
  1 28  1  0  0  0  0
  1 29  1  0  0  0  0
  1 30  1  0  0  0  0
  2  3  2  0  0  0  0
  2  4  1  0  0  0  0
  4  5  1  0  0  0  0
  4 31  1  0  0  0  0
  5  6  1  0  0  0  0
  5 21  2  0  0  0  0
  6  7  1  0  0  0  0
  7  8  1  0  0  0  0
  7 20  2  0  0  0  0
  8  9  1  0  0  0  0
  8 19  2  0  0  0  0
  9 10  2  0  0  0  0
  9 32  1  0  0  0  0
 10 11  1  0  0  0  0
 11 12  2  0  0  0  0
 11 33  1  0  0  0  0
 12 13  1  0  0  0  0
 12 19  1  0  0  0  0
 13 14  1  0  0  0  0
 13 18  2  0  0  0  0
 14 15  2  0  0  0  0
 14 34  1  0  0  0  0
 15 16  1  0  0  0  0
 15 35  1  0  0  0  0
 16 17  2  0  0  0  0
 16 36  1  0  0  0  0
 17 18  1  0  0  0  0
 17 37  1  0  0  0  0
 18 38  1  0  0  0  0
 19 39  1  0  0  0  0
 20 21  1  0  0  0  0
 21 22  1  0  0  0  0
 22 23  1  0  0  0  0
 22 27  2  0  0  0  0
 23 24  2  0  0  0  0
 23 40  1  0  0  0  0
 24 25  1  0  0  0  0
 24 41  1  0  0  0  0
 25 26  2  0  0  0  0
 25 42  1  0  0  0  0
 26 27  1  0  0  0  0
 26 43  1  0  0  0  0
 27 44  1  0  0  0  0
M  END
$$$$
