CHEMBL3660293
 OpenBabel04072215373D

 64 68  0  0  1  0  0  0  0  0999 V2000
    2.8754    7.1522    2.4101 C   0  0  0  0  0  0  0  0  0  0  0  0
    1.7511    6.1755    2.2204 C   0  0  0  0  0  0  0  0  0  0  0  0
    2.0299    4.8669    1.8145 C   0  0  0  0  0  0  0  0  0  0  0  0
    0.9966    3.9502    1.6741 C   0  0  0  0  0  0  0  0  0  0  0  0
   -0.3187    4.3365    1.9180 C   0  0  0  0  0  0  0  0  0  0  0  0
   -1.2274    3.3538    1.8984 F   0  0  0  0  0  0  0  0  0  0  0  0
   -0.6450    5.6595    2.2590 C   0  0  0  0  0  0  0  0  0  0  0  0
   -1.9691    6.1531    2.4283 N   0  0  0  0  0  0  0  0  0  0  0  0
   -3.1070    5.5514    1.9206 C   0  0  0  0  0  0  0  0  0  0  0  0
   -3.1256    4.5333    1.2479 O   0  0  0  0  0  0  0  0  0  0  0  0
   -4.2679    6.2726    2.1999 N   0  0  0  0  0  0  0  0  0  0  0  0
   -5.5128    5.7105    1.8131 C   0  0  0  0  0  0  0  0  0  0  0  0
   -5.8276    4.3906    2.1565 C   0  0  0  0  0  0  0  0  0  0  0  0
   -6.9878    3.7879    1.6705 C   0  0  0  0  0  0  0  0  0  0  0  0
   -7.8752    4.5198    0.8809 C   0  0  0  0  0  0  0  0  0  0  0  0
   -9.0365    4.0062    0.3444 O   0  0  0  0  0  0  0  0  0  0  0  0
   -9.7366    3.0421    1.0365 C   0  0  0  0  0  0  0  0  0  0  0  0
   -9.8686    3.0220    2.4214 C   0  0  0  0  0  0  0  0  0  0  0  0
  -10.5766    1.9804    2.9921 C   0  0  0  0  0  0  0  0  0  0  0  0
  -11.1930    1.0105    2.2832 N   0  0  0  0  0  0  0  0  0  0  0  0
  -11.1050    1.0897    0.9317 C   0  0  0  0  0  0  0  0  0  0  0  0
  -11.8317    0.0416    0.2236 C   0  0  0  0  0  0  0  0  0  0  0  0
  -12.0257   -0.2087   -1.1229 C   0  0  0  0  0  0  0  0  0  0  0  0
  -12.8049   -1.3983   -1.2736 C   0  0  0  0  0  0  0  0  0  0  0  0
  -13.1788   -1.9952   -2.5575 C   0  0  0  0  0  0  0  0  0  0  0  0
  -13.3322   -1.2755   -3.5473 O   0  0  0  0  0  0  0  0  0  0  0  0
  -13.2649   -3.3750   -2.6568 N   0  0  0  0  0  0  0  0  0  0  0  0
  -13.4097   -3.9858   -3.9664 C   0  0  0  0  0  0  0  0  0  0  0  0
  -13.2091   -5.4788   -3.7519 C   0  0  0  0  0  0  0  0  0  0  0  0
  -12.4227   -5.5638   -2.4488 C   0  0  2  0  0  0  0  0  0  0  0  0
  -12.6410   -6.7986   -1.7872 O   0  0  0  0  0  0  0  0  0  0  0  0
  -12.9331   -4.3676   -1.6512 C   0  0  0  0  0  0  0  0  0  0  0  0
  -13.1245   -1.7966    0.0133 C   0  0  0  0  0  0  0  0  0  0  0  0
  -12.5053   -0.9517    0.8977 N   0  0  0  0  0  0  0  0  0  0  0  0
  -10.3911    2.0810    0.2725 C   0  0  0  0  0  0  0  0  0  0  0  0
   -7.5624    5.8388    0.5363 C   0  0  0  0  0  0  0  0  0  0  0  0
   -6.3957    6.4453    1.0212 C   0  0  0  0  0  0  0  0  0  0  0  0
    0.4139    6.5648    2.4410 C   0  0  0  0  0  0  0  0  0  0  0  0
    3.8462    6.6835    2.2119 H   0  0  0  0  0  0  0  0  0  0  0  0
    2.8894    7.5165    3.4418 H   0  0  0  0  0  0  0  0  0  0  0  0
    2.7669    7.9968    1.7234 H   0  0  0  0  0  0  0  0  0  0  0  0
    3.0512    4.5453    1.6244 H   0  0  0  0  0  0  0  0  0  0  0  0
    1.1982    2.9215    1.3916 H   0  0  0  0  0  0  0  0  0  0  0  0
   -2.0744    7.0771    2.8197 H   0  0  0  0  0  0  0  0  0  0  0  0
   -4.1746    7.2688    2.0685 H   0  0  0  0  0  0  0  0  0  0  0  0
   -5.1512    3.8065    2.7770 H   0  0  0  0  0  0  0  0  0  0  0  0
   -7.1665    2.7426    1.9052 H   0  0  0  0  0  0  0  0  0  0  0  0
   -9.4187    3.7805    3.0508 H   0  0  0  0  0  0  0  0  0  0  0  0
  -10.6675    1.8974    4.0713 H   0  0  0  0  0  0  0  0  0  0  0  0
  -11.6310    0.3793   -1.9430 H   0  0  0  0  0  0  0  0  0  0  0  0
  -12.6558   -3.5712   -4.6453 H   0  0  0  0  0  0  0  0  0  0  0  0
  -14.4035   -3.7599   -4.3673 H   0  0  0  0  0  0  0  0  0  0  0  0
  -12.6697   -5.9446   -4.5832 H   0  0  0  0  0  0  0  0  0  0  0  0
  -14.1727   -5.9936   -3.6659 H   0  0  0  0  0  0  0  0  0  0  0  0
  -11.3497   -5.4514   -2.6427 H   0  0  0  0  0  0  0  0  0  0  0  0
  -13.5986   -6.9152   -1.6622 H   0  0  0  0  0  0  0  0  0  0  0  0
  -12.1803   -4.0249   -0.9391 H   0  0  0  0  0  0  0  0  0  0  0  0
  -13.8532   -4.6127   -1.1078 H   0  0  0  0  0  0  0  0  0  0  0  0
  -13.7299   -2.6115    0.3847 H   0  0  0  0  0  0  0  0  0  0  0  0
  -12.5292   -1.0107    1.9091 H   0  0  0  0  0  0  0  0  0  0  0  0
  -10.3363    2.1126   -0.8092 H   0  0  0  0  0  0  0  0  0  0  0  0
   -8.2165    6.3879   -0.1367 H   0  0  0  0  0  0  0  0  0  0  0  0
   -6.1566    7.4560    0.7055 H   0  0  0  0  0  0  0  0  0  0  0  0
    0.2106    7.5926    2.7325 H   0  0  0  0  0  0  0  0  0  0  0  0
  1  2  1  0  0  0  0
  1 39  1  0  0  0  0
  1 40  1  0  0  0  0
  1 41  1  0  0  0  0
  2  3  1  0  0  0  0
  2 38  2  0  0  0  0
  3  4  2  0  0  0  0
  3 42  1  0  0  0  0
  4  5  1  0  0  0  0
  4 43  1  0  0  0  0
  5  6  1  0  0  0  0
  5  7  2  0  0  0  0
  7  8  1  0  0  0  0
  7 38  1  0  0  0  0
  8  9  1  0  0  0  0
  8 44  1  0  0  0  0
  9 10  2  0  0  0  0
  9 11  1  0  0  0  0
 11 12  1  0  0  0  0
 11 45  1  0  0  0  0
 12 13  1  0  0  0  0
 12 37  2  0  0  0  0
 13 14  2  0  0  0  0
 13 46  1  0  0  0  0
 14 15  1  0  0  0  0
 14 47  1  0  0  0  0
 15 16  1  0  0  0  0
 15 36  2  0  0  0  0
 16 17  1  0  0  0  0
 17 18  1  0  0  0  0
 17 35  2  0  0  0  0
 18 19  2  0  0  0  0
 18 48  1  0  0  0  0
 19 20  1  0  0  0  0
 19 49  1  0  0  0  0
 20 21  2  0  0  0  0
 21 22  1  0  0  0  0
 21 35  1  0  0  0  0
 22 23  2  0  0  0  0
 22 34  1  0  0  0  0
 23 24  1  0  0  0  0
 23 50  1  0  0  0  0
 24 25  1  0  0  0  0
 24 33  2  0  0  0  0
 25 26  2  0  0  0  0
 25 27  1  0  0  0  0
 27 28  1  0  0  0  0
 27 32  1  0  0  0  0
 28 29  1  0  0  0  0
 28 51  1  0  0  0  0
 28 52  1  0  0  0  0
 29 30  1  0  0  0  0
 29 53  1  0  0  0  0
 29 54  1  0  0  0  0
 30 31  1  0  0  0  0
 30 32  1  0  0  0  0
 30 55  1  6  0  0  0
 31 56  1  0  0  0  0
 32 57  1  0  0  0  0
 32 58  1  0  0  0  0
 33 34  1  0  0  0  0
 33 59  1  0  0  0  0
 34 60  1  0  0  0  0
 35 61  1  0  0  0  0
 36 37  1  0  0  0  0
 36 62  1  0  0  0  0
 37 63  1  0  0  0  0
 38 64  1  0  0  0  0
M  END
$$$$
