CHEMBL4099329
 OpenBabel04072215383D

 48 51  0  0  0  0  0  0  0  0999 V2000
    6.0067    2.0917    0.2573 C   0  0  0  0  0  0  0  0  0  0  0  0
    4.8047    1.6175   -0.3422 O   0  0  0  0  0  0  0  0  0  0  0  0
    4.9675    0.6123   -1.2544 C   0  0  0  0  0  0  0  0  0  0  0  0
    5.9978   -0.3196   -1.2390 C   0  0  0  0  0  0  0  0  0  0  0  0
    6.0669   -1.3142   -2.2251 C   0  0  0  0  0  0  0  0  0  0  0  0
    5.1017   -1.4298   -3.2395 C   0  0  0  0  0  0  0  0  0  0  0  0
    5.1040   -2.4576   -4.2126 N   0  0  0  0  0  0  0  0  0  0  0  0
    5.9206   -3.6479   -3.9644 C   0  0  0  0  0  0  0  0  0  0  0  0
    4.7096   -2.2906   -5.5664 C   0  0  0  0  0  0  0  0  0  0  0  0
    4.8023   -1.0678   -6.1622 N   0  0  0  0  0  0  0  0  0  0  0  0
    4.4697   -0.9027   -7.4512 C   0  0  0  0  0  0  0  0  0  0  0  0
    4.6047    0.3750   -7.9615 N   0  0  0  0  0  0  0  0  0  0  0  0
    3.9815   -1.8343   -8.2726 N   0  0  0  0  0  0  0  0  0  0  0  0
    3.8536   -3.0507   -7.7094 C   0  0  0  0  0  0  0  0  0  0  0  0
    3.3781   -4.2641   -8.2929 C   0  0  0  0  0  0  0  0  0  0  0  0
    2.9221   -4.4914   -9.6948 C   0  0  0  0  0  0  0  0  0  0  0  0
    1.4152   -4.3737   -9.6895 C   0  0  0  0  0  0  0  0  0  0  0  0
    0.8035   -3.1471   -9.9860 C   0  0  0  0  0  0  0  0  0  0  0  0
   -0.5883   -3.0345  -10.0162 C   0  0  0  0  0  0  0  0  0  0  0  0
   -1.3863   -4.1435   -9.7407 C   0  0  0  0  0  0  0  0  0  0  0  0
   -0.7936   -5.3671   -9.4347 C   0  0  0  0  0  0  0  0  0  0  0  0
    0.5989   -5.4824   -9.4096 C   0  0  0  0  0  0  0  0  0  0  0  0
    3.4610   -5.2264   -7.3023 C   0  0  0  0  0  0  0  0  0  0  0  0
    3.8819   -4.6198   -6.1536 N   0  0  0  0  0  0  0  0  0  0  0  0
    4.2008   -3.3045   -6.3873 C   0  0  0  0  0  0  0  0  0  0  0  0
    4.0663   -0.4773   -3.2238 C   0  0  0  0  0  0  0  0  0  0  0  0
    3.9939    0.5223   -2.2439 C   0  0  0  0  0  0  0  0  0  0  0  0
    5.7577    2.9712    0.8580 H   0  0  0  0  0  0  0  0  0  0  0  0
    6.7313    2.3986   -0.5053 H   0  0  0  0  0  0  0  0  0  0  0  0
    6.4393    1.3465    0.9325 H   0  0  0  0  0  0  0  0  0  0  0  0
    6.7612   -0.3137   -0.4688 H   0  0  0  0  0  0  0  0  0  0  0  0
    6.9223   -1.9790   -2.1734 H   0  0  0  0  0  0  0  0  0  0  0  0
    6.3400   -3.7107   -2.9572 H   0  0  0  0  0  0  0  0  0  0  0  0
    6.7514   -3.7217   -4.6745 H   0  0  0  0  0  0  0  0  0  0  0  0
    5.3174   -4.5552   -4.0229 H   0  0  0  0  0  0  0  0  0  0  0  0
    4.5957    1.0369   -7.1971 H   0  0  0  0  0  0  0  0  0  0  0  0
    3.9374    0.5169   -8.7067 H   0  0  0  0  0  0  0  0  0  0  0  0
    3.2172   -5.4905  -10.0411 H   0  0  0  0  0  0  0  0  0  0  0  0
    3.3700   -3.7725  -10.3890 H   0  0  0  0  0  0  0  0  0  0  0  0
    1.4134   -2.2720  -10.1967 H   0  0  0  0  0  0  0  0  0  0  0  0
   -1.0486   -2.0803  -10.2561 H   0  0  0  0  0  0  0  0  0  0  0  0
   -2.4691   -4.0549   -9.7684 H   0  0  0  0  0  0  0  0  0  0  0  0
   -1.4150   -6.2323   -9.2180 H   0  0  0  0  0  0  0  0  0  0  0  0
    1.0442   -6.4446   -9.1700 H   0  0  0  0  0  0  0  0  0  0  0  0
    3.2189   -6.2809   -7.3129 H   0  0  0  0  0  0  0  0  0  0  0  0
    3.9397   -5.0818   -5.2604 H   0  0  0  0  0  0  0  0  0  0  0  0
    3.2824   -0.5147   -3.9770 H   0  0  0  0  0  0  0  0  0  0  0  0
    3.1733    1.2343   -2.2630 H   0  0  0  0  0  0  0  0  0  0  0  0
  1  2  1  0  0  0  0
  1 28  1  0  0  0  0
  1 29  1  0  0  0  0
  1 30  1  0  0  0  0
  2  3  1  0  0  0  0
  3  4  1  0  0  0  0
  3 27  2  0  0  0  0
  4  5  2  0  0  0  0
  4 31  1  0  0  0  0
  5  6  1  0  0  0  0
  5 32  1  0  0  0  0
  6  7  1  0  0  0  0
  6 26  2  0  0  0  0
  7  8  1  0  0  0  0
  7  9  1  0  0  0  0
  8 33  1  0  0  0  0
  8 34  1  0  0  0  0
  8 35  1  0  0  0  0
  9 10  1  0  0  0  0
  9 25  2  0  0  0  0
 10 11  2  0  0  0  0
 11 12  1  0  0  0  0
 11 13  1  0  0  0  0
 12 36  1  0  0  0  0
 12 37  1  0  0  0  0
 13 14  2  0  0  0  0
 14 15  1  0  0  0  0
 14 25  1  0  0  0  0
 15 16  1  0  0  0  0
 15 23  2  0  0  0  0
 16 17  1  0  0  0  0
 16 38  1  0  0  0  0
 16 39  1  0  0  0  0
 17 18  1  0  0  0  0
 17 22  2  0  0  0  0
 18 19  2  0  0  0  0
 18 40  1  0  0  0  0
 19 20  1  0  0  0  0
 19 41  1  0  0  0  0
 20 21  2  0  0  0  0
 20 42  1  0  0  0  0
 21 22  1  0  0  0  0
 21 43  1  0  0  0  0
 22 44  1  0  0  0  0
 23 24  1  0  0  0  0
 23 45  1  0  0  0  0
 24 25  1  0  0  0  0
 24 46  1  0  0  0  0
 26 27  1  0  0  0  0
 26 47  1  0  0  0  0
 27 48  1  0  0  0  0
M  END
$$$$
