CHEMBL3656127
 OpenBabel04072215373D

 57 61  0  0  0  0  0  0  0  0999 V2000
    2.8384    0.8020   -2.3518 C   0  0  0  0  0  0  0  0  0  0  0  0
    1.4278    0.5339   -1.9108 C   0  0  0  0  0  0  0  0  0  0  0  0
    0.9162   -0.7643   -1.9911 C   0  0  0  0  0  0  0  0  0  0  0  0
   -0.3734   -1.0295   -1.5517 C   0  0  0  0  0  0  0  0  0  0  0  0
   -1.1660    0.0001   -1.0478 C   0  0  0  0  0  0  0  0  0  0  0  0
   -2.3355   -0.3764   -0.5153 F   0  0  0  0  0  0  0  0  0  0  0  0
   -0.7156    1.3290   -1.0124 C   0  0  0  0  0  0  0  0  0  0  0  0
   -1.5014    2.4444   -0.5956 N   0  0  0  0  0  0  0  0  0  0  0  0
   -2.8819    2.4548   -0.5376 C   0  0  0  0  0  0  0  0  0  0  0  0
   -3.6151    1.5357   -0.8643 O   0  0  0  0  0  0  0  0  0  0  0  0
   -3.3974    3.6895   -0.1253 N   0  0  0  0  0  0  0  0  0  0  0  0
   -4.8020    3.7983    0.0575 C   0  0  0  0  0  0  0  0  0  0  0  0
   -5.4824    2.8670    0.8497 C   0  0  0  0  0  0  0  0  0  0  0  0
   -6.8744    2.8918    0.9400 C   0  0  0  0  0  0  0  0  0  0  0  0
   -7.5982    3.8875    0.2830 C   0  0  0  0  0  0  0  0  0  0  0  0
   -8.9725    3.9938    0.3147 O   0  0  0  0  0  0  0  0  0  0  0  0
   -9.6587    3.5962    1.4404 C   0  0  0  0  0  0  0  0  0  0  0  0
   -9.1989    3.7686    2.7411 C   0  0  0  0  0  0  0  0  0  0  0  0
   -9.9785    3.2875    3.7775 C   0  0  0  0  0  0  0  0  0  0  0  0
  -11.1846    2.6989    3.6072 N   0  0  0  0  0  0  0  0  0  0  0  0
  -11.6364    2.5999    2.3350 C   0  0  0  0  0  0  0  0  0  0  0  0
  -12.9489    1.9776    2.1962 C   0  0  0  0  0  0  0  0  0  0  0  0
  -13.7329    1.7482    1.0812 C   0  0  0  0  0  0  0  0  0  0  0  0
  -14.9313    1.0945    1.4816 C   0  0  0  0  0  0  0  0  0  0  0  0
  -16.0004    0.6525    0.5926 C   0  0  0  0  0  0  0  0  0  0  0  0
  -15.9096    0.7418   -0.6285 O   0  0  0  0  0  0  0  0  0  0  0  0
  -17.0901    0.1041    1.2631 N   0  0  0  0  0  0  0  0  0  0  0  0
  -18.2598   -0.3188    0.5591 C   0  0  0  0  0  0  0  0  0  0  0  0
  -17.3541   -1.2956    1.2402 C   0  0  0  0  0  0  0  0  0  0  0  0
  -14.8384    0.9406    2.8568 C   0  0  0  0  0  0  0  0  0  0  0  0
  -13.6446    1.4732    3.2697 N   0  0  0  0  0  0  0  0  0  0  0  0
  -10.9159    3.0384    1.2326 C   0  0  0  0  0  0  0  0  0  0  0  0
   -6.9213    4.8141   -0.5169 C   0  0  0  0  0  0  0  0  0  0  0  0
   -5.5224    4.7883   -0.6118 C   0  0  0  0  0  0  0  0  0  0  0  0
    0.6089    1.5751   -1.4212 C   0  0  0  0  0  0  0  0  0  0  0  0
    3.3321   -0.1197   -2.6821 H   0  0  0  0  0  0  0  0  0  0  0  0
    3.4245    1.2093   -1.5226 H   0  0  0  0  0  0  0  0  0  0  0  0
    2.8498    1.5033   -3.1911 H   0  0  0  0  0  0  0  0  0  0  0  0
    1.5217   -1.5823   -2.3753 H   0  0  0  0  0  0  0  0  0  0  0  0
   -0.7748   -2.0377   -1.5762 H   0  0  0  0  0  0  0  0  0  0  0  0
   -1.0271    3.3218   -0.4653 H   0  0  0  0  0  0  0  0  0  0  0  0
   -2.9441    4.4836   -0.5490 H   0  0  0  0  0  0  0  0  0  0  0  0
   -4.9351    2.0904    1.3802 H   0  0  0  0  0  0  0  0  0  0  0  0
   -7.3711    2.1158    1.5145 H   0  0  0  0  0  0  0  0  0  0  0  0
   -8.2475    4.2426    2.9513 H   0  0  0  0  0  0  0  0  0  0  0  0
   -9.6370    3.3616    4.8060 H   0  0  0  0  0  0  0  0  0  0  0  0
  -13.4848    2.0117    0.0602 H   0  0  0  0  0  0  0  0  0  0  0  0
  -18.2226   -0.2508   -0.5213 H   0  0  0  0  0  0  0  0  0  0  0  0
  -19.1802   -0.0179    1.0355 H   0  0  0  0  0  0  0  0  0  0  0  0
  -16.6624   -1.8844    0.6523 H   0  0  0  0  0  0  0  0  0  0  0  0
  -17.6204   -1.6831    2.2131 H   0  0  0  0  0  0  0  0  0  0  0  0
  -15.5158    0.4896    3.5673 H   0  0  0  0  0  0  0  0  0  0  0  0
  -13.2954    1.4953    4.2217 H   0  0  0  0  0  0  0  0  0  0  0  0
  -11.3083    2.9415    0.2261 H   0  0  0  0  0  0  0  0  0  0  0  0
   -7.4884    5.5434   -1.0904 H   0  0  0  0  0  0  0  0  0  0  0  0
   -5.0266    5.4943   -1.2696 H   0  0  0  0  0  0  0  0  0  0  0  0
    1.0142    2.5837   -1.3868 H   0  0  0  0  0  0  0  0  0  0  0  0
  1  2  1  0  0  0  0
  1 36  1  0  0  0  0
  1 37  1  0  0  0  0
  1 38  1  0  0  0  0
  2  3  1  0  0  0  0
  2 35  2  0  0  0  0
  3  4  2  0  0  0  0
  3 39  1  0  0  0  0
  4  5  1  0  0  0  0
  4 40  1  0  0  0  0
  5  6  1  0  0  0  0
  5  7  2  0  0  0  0
  7  8  1  0  0  0  0
  7 35  1  0  0  0  0
  8  9  1  0  0  0  0
  8 41  1  0  0  0  0
  9 10  2  0  0  0  0
  9 11  1  0  0  0  0
 11 12  1  0  0  0  0
 11 42  1  0  0  0  0
 12 13  1  0  0  0  0
 12 34  2  0  0  0  0
 13 14  2  0  0  0  0
 13 43  1  0  0  0  0
 14 15  1  0  0  0  0
 14 44  1  0  0  0  0
 15 16  1  0  0  0  0
 15 33  2  0  0  0  0
 16 17  1  0  0  0  0
 17 18  1  0  0  0  0
 17 32  2  0  0  0  0
 18 19  2  0  0  0  0
 18 45  1  0  0  0  0
 19 20  1  0  0  0  0
 19 46  1  0  0  0  0
 20 21  2  0  0  0  0
 21 22  1  0  0  0  0
 21 32  1  0  0  0  0
 22 23  2  0  0  0  0
 22 31  1  0  0  0  0
 23 24  1  0  0  0  0
 23 47  1  0  0  0  0
 24 25  1  0  0  0  0
 24 30  2  0  0  0  0
 25 26  2  0  0  0  0
 25 27  1  0  0  0  0
 27 28  1  0  0  0  0
 27 29  1  0  0  0  0
 28 29  1  0  0  0  0
 28 48  1  0  0  0  0
 28 49  1  0  0  0  0
 29 50  1  0  0  0  0
 29 51  1  0  0  0  0
 30 31  1  0  0  0  0
 30 52  1  0  0  0  0
 31 53  1  0  0  0  0
 32 54  1  0  0  0  0
 33 34  1  0  0  0  0
 33 55  1  0  0  0  0
 34 56  1  0  0  0  0
 35 57  1  0  0  0  0
M  END
$$$$
