CHEMBL2023486
 OpenBabel04072215363D

 56 59  0  0  0  0  0  0  0  0999 V2000
    6.8736   -3.4505    3.7174 C   0  0  0  0  0  0  0  0  0  0  0  0
    7.6824   -4.0911    2.5986 C   0  0  0  0  0  0  0  0  0  0  0  0
    6.8347   -4.3478    1.4048 C   0  0  0  0  0  0  0  0  0  0  0  0
    6.0631   -5.4278    1.0359 C   0  0  0  0  0  0  0  0  0  0  0  0
    5.4080   -5.0431   -0.1590 C   0  0  0  0  0  0  0  0  0  0  0  0
    4.4879   -5.8335   -0.8140 N   0  0  0  0  0  0  0  0  0  0  0  0
    3.7354   -5.4437   -1.9012 C   0  0  0  0  0  0  0  0  0  0  0  0
    3.7976   -4.3646   -2.4890 O   0  0  0  0  0  0  0  0  0  0  0  0
    2.7939   -6.5101   -2.4499 C   0  0  0  0  0  0  0  0  0  0  0  0
    2.2489   -7.5433   -1.4823 C   0  0  0  0  0  0  0  0  0  0  0  0
    2.5353   -8.9005   -1.7565 C   0  0  0  0  0  0  0  0  0  0  0  0
    2.1462   -9.9359   -0.8923 C   0  0  0  0  0  0  0  0  0  0  0  0
    1.4844   -9.6330    0.2896 C   0  0  0  0  0  0  0  0  0  0  0  0
    1.0181  -10.5424    1.2135 O   0  0  0  0  0  0  0  0  0  0  0  0
    1.5881  -11.7909    1.3891 C   0  0  0  0  0  0  0  0  0  0  0  0
    2.9643  -11.9934    1.3981 C   0  0  0  0  0  0  0  0  0  0  0  0
    3.4241  -13.2724    1.6736 C   0  0  0  0  0  0  0  0  0  0  0  0
    2.6242  -14.3219    1.9457 N   0  0  0  0  0  0  0  0  0  0  0  0
    1.2986  -14.1207    1.9716 C   0  0  0  0  0  0  0  0  0  0  0  0
    0.4765  -15.2048    2.2690 C   0  0  0  0  0  0  0  0  0  0  0  0
   -0.9100  -15.0841    2.3221 C   0  0  0  0  0  0  0  0  0  0  0  0
   -1.7929  -16.1042    2.5569 O   0  0  0  0  0  0  0  0  0  0  0  0
   -1.2645  -17.2856    3.1499 C   0  0  0  0  0  0  0  0  0  0  0  0
   -1.4903  -13.8405    2.0903 C   0  0  0  0  0  0  0  0  0  0  0  0
   -0.6878  -12.7345    1.7978 C   0  0  0  0  0  0  0  0  0  0  0  0
    0.7172  -12.8594    1.7142 C   0  0  0  0  0  0  0  0  0  0  0  0
    1.1507   -8.2967    0.5456 C   0  0  0  0  0  0  0  0  0  0  0  0
    1.4979   -7.2540   -0.3349 C   0  0  0  0  0  0  0  0  0  0  0  0
    1.1237   -6.0170    0.1143 O   0  0  0  0  0  0  0  0  0  0  0  0
    0.6167   -5.0839   -0.8356 C   0  0  0  0  0  0  0  0  0  0  0  0
    5.8053   -3.8273   -0.5412 N   0  0  0  0  0  0  0  0  0  0  0  0
    6.6585   -3.4277    0.4090 N   0  0  0  0  0  0  0  0  0  0  0  0
    7.4912   -3.3243    4.6120 H   0  0  0  0  0  0  0  0  0  0  0  0
    6.0078   -4.0665    3.9857 H   0  0  0  0  0  0  0  0  0  0  0  0
    6.5015   -2.4641    3.4195 H   0  0  0  0  0  0  0  0  0  0  0  0
    8.1091   -5.0362    2.9552 H   0  0  0  0  0  0  0  0  0  0  0  0
    8.5250   -3.4406    2.3367 H   0  0  0  0  0  0  0  0  0  0  0  0
    5.9483   -6.3514    1.5839 H   0  0  0  0  0  0  0  0  0  0  0  0
    4.2941   -6.7226   -0.3785 H   0  0  0  0  0  0  0  0  0  0  0  0
    3.3525   -7.0071   -3.2537 H   0  0  0  0  0  0  0  0  0  0  0  0
    1.9530   -6.0133   -2.9464 H   0  0  0  0  0  0  0  0  0  0  0  0
    3.0727   -9.1682   -2.6672 H   0  0  0  0  0  0  0  0  0  0  0  0
    2.3650  -10.9623   -1.1730 H   0  0  0  0  0  0  0  0  0  0  0  0
    3.6724  -11.1984    1.2135 H   0  0  0  0  0  0  0  0  0  0  0  0
    4.4876  -13.4958    1.6963 H   0  0  0  0  0  0  0  0  0  0  0  0
    0.9678  -16.1551    2.4452 H   0  0  0  0  0  0  0  0  0  0  0  0
   -2.0806  -18.0092    3.2403 H   0  0  0  0  0  0  0  0  0  0  0  0
   -0.8894  -17.0717    4.1559 H   0  0  0  0  0  0  0  0  0  0  0  0
   -0.4916  -17.7499    2.5297 H   0  0  0  0  0  0  0  0  0  0  0  0
   -2.5706  -13.7289    2.1378 H   0  0  0  0  0  0  0  0  0  0  0  0
   -1.1659  -11.7717    1.6348 H   0  0  0  0  0  0  0  0  0  0  0  0
    0.5911   -8.0581    1.4491 H   0  0  0  0  0  0  0  0  0  0  0  0
   -0.1405   -4.4689   -0.3382 H   0  0  0  0  0  0  0  0  0  0  0  0
    0.1388   -5.5592   -1.6982 H   0  0  0  0  0  0  0  0  0  0  0  0
    1.4138   -4.4060   -1.1478 H   0  0  0  0  0  0  0  0  0  0  0  0
    7.0687   -2.5041    0.3229 H   0  0  0  0  0  0  0  0  0  0  0  0
  1  2  1  0  0  0  0
  1 33  1  0  0  0  0
  1 34  1  0  0  0  0
  1 35  1  0  0  0  0
  2  3  1  0  0  0  0
  2 36  1  0  0  0  0
  2 37  1  0  0  0  0
  3  4  2  0  0  0  0
  3 32  1  0  0  0  0
  4  5  1  0  0  0  0
  4 38  1  0  0  0  0
  5  6  1  0  0  0  0
  5 31  2  0  0  0  0
  6  7  1  0  0  0  0
  6 39  1  0  0  0  0
  7  8  2  0  0  0  0
  7  9  1  0  0  0  0
  9 10  1  0  0  0  0
  9 40  1  0  0  0  0
  9 41  1  0  0  0  0
 10 11  1  0  0  0  0
 10 28  2  0  0  0  0
 11 12  2  0  0  0  0
 11 42  1  0  0  0  0
 12 13  1  0  0  0  0
 12 43  1  0  0  0  0
 13 14  1  0  0  0  0
 13 27  2  0  0  0  0
 14 15  1  0  0  0  0
 15 16  1  0  0  0  0
 15 26  2  0  0  0  0
 16 17  2  0  0  0  0
 16 44  1  0  0  0  0
 17 18  1  0  0  0  0
 17 45  1  0  0  0  0
 18 19  2  0  0  0  0
 19 20  1  0  0  0  0
 19 26  1  0  0  0  0
 20 21  2  0  0  0  0
 20 46  1  0  0  0  0
 21 22  1  0  0  0  0
 21 24  1  0  0  0  0
 22 23  1  0  0  0  0
 23 47  1  0  0  0  0
 23 48  1  0  0  0  0
 23 49  1  0  0  0  0
 24 25  2  0  0  0  0
 24 50  1  0  0  0  0
 25 26  1  0  0  0  0
 25 51  1  0  0  0  0
 27 28  1  0  0  0  0
 27 52  1  0  0  0  0
 28 29  1  0  0  0  0
 29 30  1  0  0  0  0
 30 53  1  0  0  0  0
 30 54  1  0  0  0  0
 30 55  1  0  0  0  0
 31 32  1  0  0  0  0
 32 56  1  0  0  0  0
M  END
$$$$
