CHEMBL3098322
 OpenBabel04072215363D

 37 39  0  0  0  0  0  0  0  0999 V2000
    1.2312    0.1205   -0.4701 C   0  0  0  0  0  0  0  0  0  0  0  0
    2.6136    0.0646   -0.1261 O   0  0  0  0  0  0  0  0  0  0  0  0
    3.0737   -1.1596    0.2882 C   0  0  0  0  0  0  0  0  0  0  0  0
    4.0447   -1.0941    1.2974 C   0  0  0  0  0  0  0  0  0  0  0  0
    4.6062   -2.2312    1.8604 C   0  0  0  0  0  0  0  0  0  0  0  0
    5.4923   -2.0904    2.8481 N   0  0  0  0  0  0  0  0  0  0  0  0
    5.9620   -3.2235    3.3770 C   0  0  0  0  0  0  0  0  0  0  0  0
    7.0847   -3.0632    4.6527 Cl  0  0  0  0  0  0  0  0  0  0  0  0
    5.6406   -4.4701    3.0329 N   0  0  0  0  0  0  0  0  0  0  0  0
    4.7564   -4.5943    2.0308 C   0  0  0  0  0  0  0  0  0  0  0  0
    4.3658   -5.8982    1.6302 N   0  0  0  0  0  0  0  0  0  0  0  0
    4.3354   -7.0373    2.4623 C   0  0  0  0  0  0  0  0  0  0  0  0
    4.0122   -6.9342    3.8247 C   0  0  0  0  0  0  0  0  0  0  0  0
    3.9608   -8.0623    4.6439 C   0  0  0  0  0  0  0  0  0  0  0  0
    4.2106   -9.3110    4.0921 C   0  0  0  0  0  0  0  0  0  0  0  0
    4.2040  -10.4355    4.8620 O   0  0  0  0  0  0  0  0  0  0  0  0
    4.4737   -9.4480    2.7350 C   0  0  0  0  0  0  0  0  0  0  0  0
    4.5236   -8.3141    1.9184 C   0  0  0  0  0  0  0  0  0  0  0  0
    4.1986   -3.4812    1.3786 C   0  0  0  0  0  0  0  0  0  0  0  0
    3.2504   -3.5568    0.3283 C   0  0  0  0  0  0  0  0  0  0  0  0
    2.6841   -2.4037   -0.2166 C   0  0  0  0  0  0  0  0  0  0  0  0
    1.8274   -2.4424   -1.2817 O   0  0  0  0  0  0  0  0  0  0  0  0
    0.9444   -3.5575   -1.3382 C   0  0  0  0  0  0  0  0  0  0  0  0
    0.9190    1.1684   -0.4298 H   0  0  0  0  0  0  0  0  0  0  0  0
    0.6084   -0.4391    0.2380 H   0  0  0  0  0  0  0  0  0  0  0  0
    1.0701   -0.2195   -1.4968 H   0  0  0  0  0  0  0  0  0  0  0  0
    4.3514   -0.1188    1.6721 H   0  0  0  0  0  0  0  0  0  0  0  0
    4.7194   -6.0930    0.6992 H   0  0  0  0  0  0  0  0  0  0  0  0
    3.7989   -5.9628    4.2640 H   0  0  0  0  0  0  0  0  0  0  0  0
    3.7235   -7.9407    5.6954 H   0  0  0  0  0  0  0  0  0  0  0  0
    4.1468  -10.1658    5.7938 H   0  0  0  0  0  0  0  0  0  0  0  0
    4.6487  -10.4338    2.3145 H   0  0  0  0  0  0  0  0  0  0  0  0
    4.7308   -8.4423    0.8597 H   0  0  0  0  0  0  0  0  0  0  0  0
    2.9708   -4.5335   -0.0541 H   0  0  0  0  0  0  0  0  0  0  0  0
    0.1408   -3.3062   -2.0369 H   0  0  0  0  0  0  0  0  0  0  0  0
    0.4890   -3.7616   -0.3631 H   0  0  0  0  0  0  0  0  0  0  0  0
    1.4598   -4.4411   -1.7262 H   0  0  0  0  0  0  0  0  0  0  0  0
  1  2  1  0  0  0  0
  1 24  1  0  0  0  0
  1 25  1  0  0  0  0
  1 26  1  0  0  0  0
  2  3  1  0  0  0  0
  3  4  1  0  0  0  0
  3 21  2  0  0  0  0
  4  5  2  0  0  0  0
  4 27  1  0  0  0  0
  5  6  1  0  0  0  0
  5 19  1  0  0  0  0
  6  7  2  0  0  0  0
  7  8  1  0  0  0  0
  7  9  1  0  0  0  0
  9 10  2  0  0  0  0
 10 11  1  0  0  0  0
 10 19  1  0  0  0  0
 11 12  1  0  0  0  0
 11 28  1  0  0  0  0
 12 13  1  0  0  0  0
 12 18  2  0  0  0  0
 13 14  2  0  0  0  0
 13 29  1  0  0  0  0
 14 15  1  0  0  0  0
 14 30  1  0  0  0  0
 15 16  1  0  0  0  0
 15 17  2  0  0  0  0
 16 31  1  0  0  0  0
 17 18  1  0  0  0  0
 17 32  1  0  0  0  0
 18 33  1  0  0  0  0
 19 20  2  0  0  0  0
 20 21  1  0  0  0  0
 20 34  1  0  0  0  0
 21 22  1  0  0  0  0
 22 23  1  0  0  0  0
 23 35  1  0  0  0  0
 23 36  1  0  0  0  0
 23 37  1  0  0  0  0
M  END
$$$$
