CHEMBL3297900
 OpenBabel04072215363D

 44 46  0  0  0  0  0  0  0  0999 V2000
    2.7265   -0.8837   -2.5607 C   0  0  0  0  0  0  0  0  0  0  0  0
    2.4493   -0.4623   -1.1260 C   0  0  0  0  0  0  0  0  0  0  0  0
    3.1377   -1.3661   -0.0997 C   0  0  0  0  0  0  0  0  0  0  0  0
    4.6104   -1.3881   -0.1815 N   0  0  0  0  0  0  0  0  0  0  0  0
    5.3278   -0.1799   -0.0016 C   0  0  0  0  0  0  0  0  0  0  0  0
    4.8474    0.8746    0.7928 C   0  0  0  0  0  0  0  0  0  0  0  0
    5.5893    2.0515    0.9957 C   0  0  0  0  0  0  0  0  0  0  0  0
    6.8401    2.2049    0.4064 C   0  0  0  0  0  0  0  0  0  0  0  0
    7.6591    3.2932    0.5093 O   0  0  0  0  0  0  0  0  0  0  0  0
    7.1604    4.4072    1.2364 C   0  0  0  0  0  0  0  0  0  0  0  0
    7.3424    1.1693   -0.3731 C   0  0  0  0  0  0  0  0  0  0  0  0
    6.5950    0.0039   -0.5773 C   0  0  0  0  0  0  0  0  0  0  0  0
    5.2086   -2.6661    0.0145 C   0  0  0  0  0  0  0  0  0  0  0  0
    6.4250   -2.9289   -0.5519 N   0  0  0  0  0  0  0  0  0  0  0  0
    7.0487   -4.1102   -0.3730 C   0  0  0  0  0  0  0  0  0  0  0  0
    8.4000   -4.2596   -1.0046 C   0  0  0  0  0  0  0  0  0  0  0  0
    6.5843   -5.1484    0.3327 N   0  0  0  0  0  0  0  0  0  0  0  0
    5.3994   -4.8799    0.8930 C   0  0  0  0  0  0  0  0  0  0  0  0
    4.7367   -5.7839    1.6713 O   0  0  0  0  0  0  0  0  0  0  0  0
    3.5949   -5.1849    2.1071 C   0  0  0  0  0  0  0  0  0  0  0  0
    2.6957   -5.9674    2.9749 C   0  0  0  0  0  0  0  0  0  0  0  0
    3.5184   -3.9060    1.6195 C   0  0  0  0  0  0  0  0  0  0  0  0
    4.6662   -3.7018    0.8011 C   0  0  0  0  0  0  0  0  0  0  0  0
    2.1220   -0.2854   -3.2494 H   0  0  0  0  0  0  0  0  0  0  0  0
    2.4723   -1.9372   -2.7187 H   0  0  0  0  0  0  0  0  0  0  0  0
    3.7791   -0.7397   -2.8195 H   0  0  0  0  0  0  0  0  0  0  0  0
    1.3669   -0.5317   -0.9539 H   0  0  0  0  0  0  0  0  0  0  0  0
    2.7173    0.5886   -0.9886 H   0  0  0  0  0  0  0  0  0  0  0  0
    2.7266   -2.3616   -0.3083 H   0  0  0  0  0  0  0  0  0  0  0  0
    2.8123   -1.0957    0.9120 H   0  0  0  0  0  0  0  0  0  0  0  0
    3.8929    0.7963    1.3038 H   0  0  0  0  0  0  0  0  0  0  0  0
    5.1603    2.8197    1.6299 H   0  0  0  0  0  0  0  0  0  0  0  0
    7.8867    5.2199    1.1405 H   0  0  0  0  0  0  0  0  0  0  0  0
    7.0648    4.1650    2.2997 H   0  0  0  0  0  0  0  0  0  0  0  0
    6.2105    4.7629    0.8238 H   0  0  0  0  0  0  0  0  0  0  0  0
    8.3228    1.2618   -0.8330 H   0  0  0  0  0  0  0  0  0  0  0  0
    7.0256   -0.7603   -1.2182 H   0  0  0  0  0  0  0  0  0  0  0  0
    8.6660   -3.3658   -1.5780 H   0  0  0  0  0  0  0  0  0  0  0  0
    8.4073   -5.1182   -1.6823 H   0  0  0  0  0  0  0  0  0  0  0  0
    9.1594   -4.4084   -0.2312 H   0  0  0  0  0  0  0  0  0  0  0  0
    3.1196   -6.9463    3.2179 H   0  0  0  0  0  0  0  0  0  0  0  0
    1.7327   -6.1180    2.4797 H   0  0  0  0  0  0  0  0  0  0  0  0
    2.5170   -5.4281    3.9109 H   0  0  0  0  0  0  0  0  0  0  0  0
    2.7142   -3.2171    1.8312 H   0  0  0  0  0  0  0  0  0  0  0  0
  1  2  1  0  0  0  0
  1 24  1  0  0  0  0
  1 25  1  0  0  0  0
  1 26  1  0  0  0  0
  2  3  1  0  0  0  0
  2 27  1  0  0  0  0
  2 28  1  0  0  0  0
  3  4  1  0  0  0  0
  3 29  1  0  0  0  0
  3 30  1  0  0  0  0
  4  5  1  0  0  0  0
  4 13  1  0  0  0  0
  5  6  1  0  0  0  0
  5 12  2  0  0  0  0
  6  7  2  0  0  0  0
  6 31  1  0  0  0  0
  7  8  1  0  0  0  0
  7 32  1  0  0  0  0
  8  9  1  0  0  0  0
  8 11  2  0  0  0  0
  9 10  1  0  0  0  0
 10 33  1  0  0  0  0
 10 34  1  0  0  0  0
 10 35  1  0  0  0  0
 11 12  1  0  0  0  0
 11 36  1  0  0  0  0
 12 37  1  0  0  0  0
 13 14  1  0  0  0  0
 13 23  2  0  0  0  0
 14 15  2  0  0  0  0
 15 16  1  0  0  0  0
 15 17  1  0  0  0  0
 16 38  1  0  0  0  0
 16 39  1  0  0  0  0
 16 40  1  0  0  0  0
 17 18  2  0  0  0  0
 18 19  1  0  0  0  0
 18 23  1  0  0  0  0
 19 20  1  0  0  0  0
 20 21  1  0  0  0  0
 20 22  2  0  0  0  0
 21 41  1  0  0  0  0
 21 42  1  0  0  0  0
 21 43  1  0  0  0  0
 22 23  1  0  0  0  0
 22 44  1  0  0  0  0
M  END
$$$$
