CHEMBL3900935
 OpenBabel04072215373D

 55 58  0  0  0  0  0  0  0  0999 V2000
    2.6251    0.2039    0.1440 C   0  0  0  0  0  0  0  0  0  0  0  0
    1.1264    0.0684    0.1556 C   0  0  0  0  0  0  0  0  0  0  0  0
    0.3827    1.2694    0.1669 C   0  0  0  0  0  0  0  0  0  0  0  0
   -1.0056    1.2738    0.0050 C   0  0  0  0  0  0  0  0  0  0  0  0
   -1.7698    2.4196   -0.0881 O   0  0  0  0  0  0  0  0  0  0  0  0
   -1.2398    3.5217   -0.7327 C   0  0  0  0  0  0  0  0  0  0  0  0
   -0.3616    3.4264   -1.8082 C   0  0  0  0  0  0  0  0  0  0  0  0
    0.1898    4.5915   -2.2866 C   0  0  0  0  0  0  0  0  0  0  0  0
   -0.1367    5.8095   -1.8196 N   0  0  0  0  0  0  0  0  0  0  0  0
   -1.0580    5.9122   -0.8482 C   0  0  0  0  0  0  0  0  0  0  0  0
   -1.4437    7.1830   -0.3886 N   0  0  0  0  0  0  0  0  0  0  0  0
   -0.8936    8.3600   -0.8582 C   0  0  0  0  0  0  0  0  0  0  0  0
   -0.0111    8.4959   -1.6957 O   0  0  0  0  0  0  0  0  0  0  0  0
   -1.4269    9.6298   -0.2663 C   0  0  0  0  0  0  0  0  0  0  0  0
   -1.2178    9.8967    1.2063 C   0  0  0  0  0  0  0  0  0  0  0  0
   -2.6088    9.7842    0.6514 C   0  0  0  0  0  0  0  0  0  0  0  0
   -1.6364    4.7831   -0.2742 C   0  0  0  0  0  0  0  0  0  0  0  0
   -1.6761    0.0632   -0.0526 C   0  0  0  0  0  0  0  0  0  0  0  0
   -0.9585   -1.1372    0.0048 C   0  0  0  0  0  0  0  0  0  0  0  0
    0.4416   -1.1656    0.1060 C   0  0  0  0  0  0  0  0  0  0  0  0
    1.1581   -2.3973    0.1732 N   0  0  0  0  0  0  0  0  0  0  0  0
    0.5981   -3.6545    0.3786 C   0  0  0  0  0  0  0  0  0  0  0  0
   -0.6004   -3.8925    0.4755 O   0  0  0  0  0  0  0  0  0  0  0  0
    1.5615   -4.6468    0.5458 N   0  0  0  0  0  0  0  0  0  0  0  0
    1.1721   -5.9809    0.8410 C   0  0  0  0  0  0  0  0  0  0  0  0
    1.8003   -6.6429    1.8970 C   0  0  0  0  0  0  0  0  0  0  0  0
    1.3726   -7.9185    2.2741 C   0  0  0  0  0  0  0  0  0  0  0  0
    0.3612   -8.5580    1.5608 C   0  0  0  0  0  0  0  0  0  0  0  0
   -0.0154   -9.7814    1.9546 F   0  0  0  0  0  0  0  0  0  0  0  0
   -0.2441   -7.9464    0.4686 C   0  0  0  0  0  0  0  0  0  0  0  0
   -1.3009   -8.6554   -0.3269 C   0  0  0  0  0  0  0  0  0  0  0  0
   -1.5522   -9.9363    0.0611 F   0  0  0  0  0  0  0  0  0  0  0  0
   -2.5046   -8.0186   -0.2889 F   0  0  0  0  0  0  0  0  0  0  0  0
   -0.9723   -8.7389   -1.6489 F   0  0  0  0  0  0  0  0  0  0  0  0
    0.1594   -6.6393    0.1250 C   0  0  0  0  0  0  0  0  0  0  0  0
    2.9292    1.2416    0.3341 H   0  0  0  0  0  0  0  0  0  0  0  0
    3.0163   -0.0667   -0.8424 H   0  0  0  0  0  0  0  0  0  0  0  0
    3.0906   -0.4113    0.9162 H   0  0  0  0  0  0  0  0  0  0  0  0
    0.9096    2.2168    0.2653 H   0  0  0  0  0  0  0  0  0  0  0  0
   -0.0719    2.4768   -2.2421 H   0  0  0  0  0  0  0  0  0  0  0  0
    0.9394    4.5842   -3.0718 H   0  0  0  0  0  0  0  0  0  0  0  0
   -2.1478    7.2319    0.3271 H   0  0  0  0  0  0  0  0  0  0  0  0
   -1.2517   10.4747   -0.9313 H   0  0  0  0  0  0  0  0  0  0  0  0
   -0.8388   10.8761    1.4775 H   0  0  0  0  0  0  0  0  0  0  0  0
   -0.8465    9.0937    1.8320 H   0  0  0  0  0  0  0  0  0  0  0  0
   -3.1852   10.7011    0.5592 H   0  0  0  0  0  0  0  0  0  0  0  0
   -3.2104    8.9310    0.9290 H   0  0  0  0  0  0  0  0  0  0  0  0
   -2.3693    4.8577    0.5210 H   0  0  0  0  0  0  0  0  0  0  0  0
   -2.7585    0.0343   -0.1563 H   0  0  0  0  0  0  0  0  0  0  0  0
   -1.5468   -2.0457   -0.0678 H   0  0  0  0  0  0  0  0  0  0  0  0
    2.1638   -2.3461    0.1133 H   0  0  0  0  0  0  0  0  0  0  0  0
    2.4143   -4.3306    0.9835 H   0  0  0  0  0  0  0  0  0  0  0  0
    2.5735   -6.1548    2.4824 H   0  0  0  0  0  0  0  0  0  0  0  0
    1.8117   -8.4180    3.1330 H   0  0  0  0  0  0  0  0  0  0  0  0
   -0.3268   -6.1400   -0.7128 H   0  0  0  0  0  0  0  0  0  0  0  0
  1  2  1  0  0  0  0
  1 36  1  0  0  0  0
  1 37  1  0  0  0  0
  1 38  1  0  0  0  0
  2  3  1  0  0  0  0
  2 20  2  0  0  0  0
  3  4  2  0  0  0  0
  3 39  1  0  0  0  0
  4  5  1  0  0  0  0
  4 18  1  0  0  0  0
  5  6  1  0  0  0  0
  6  7  1  0  0  0  0
  6 17  2  0  0  0  0
  7  8  2  0  0  0  0
  7 40  1  0  0  0  0
  8  9  1  0  0  0  0
  8 41  1  0  0  0  0
  9 10  2  0  0  0  0
 10 11  1  0  0  0  0
 10 17  1  0  0  0  0
 11 12  1  0  0  0  0
 11 42  1  0  0  0  0
 12 13  2  0  0  0  0
 12 14  1  0  0  0  0
 14 15  1  0  0  0  0
 14 16  1  0  0  0  0
 14 43  1  0  0  0  0
 15 16  1  0  0  0  0
 15 44  1  0  0  0  0
 15 45  1  0  0  0  0
 16 46  1  0  0  0  0
 16 47  1  0  0  0  0
 17 48  1  0  0  0  0
 18 19  2  0  0  0  0
 18 49  1  0  0  0  0
 19 20  1  0  0  0  0
 19 50  1  0  0  0  0
 20 21  1  0  0  0  0
 21 22  1  0  0  0  0
 21 51  1  0  0  0  0
 22 23  2  0  0  0  0
 22 24  1  0  0  0  0
 24 25  1  0  0  0  0
 24 52  1  0  0  0  0
 25 26  1  0  0  0  0
 25 35  2  0  0  0  0
 26 27  2  0  0  0  0
 26 53  1  0  0  0  0
 27 28  1  0  0  0  0
 27 54  1  0  0  0  0
 28 29  1  0  0  0  0
 28 30  2  0  0  0  0
 30 31  1  0  0  0  0
 30 35  1  0  0  0  0
 31 32  1  0  0  0  0
 31 33  1  0  0  0  0
 31 34  1  0  0  0  0
 35 55  1  0  0  0  0
M  END
$$$$
