CHEMBL457985
 OpenBabel04072215383D

 50 54  0  0  0  0  0  0  0  0999 V2000
    2.0363   -1.3802   -0.9484 C   0  0  0  0  0  0  0  0  0  0  0  0
    0.8827   -0.5064   -0.7308 N   0  0  0  0  0  0  0  0  0  0  0  0
   -0.3062   -1.0135   -1.4535 C   0  0  0  0  0  0  0  0  0  0  0  0
   -1.5712   -0.1427   -1.2230 C   0  0  0  0  0  0  0  0  0  0  0  0
   -1.8185   -0.0224    0.2164 N   0  0  0  0  0  0  0  0  0  0  0  0
   -3.0873    0.0419    0.7608 C   0  0  0  0  0  0  0  0  0  0  0  0
   -3.2635   -0.3934    2.0796 C   0  0  0  0  0  0  0  0  0  0  0  0
   -4.5048   -0.3843    2.6855 C   0  0  0  0  0  0  0  0  0  0  0  0
   -5.6105    0.0186    1.9520 C   0  0  0  0  0  0  0  0  0  0  0  0
   -6.8315   -0.0326    2.5994 N   0  0  0  0  0  0  0  0  0  0  0  0
   -8.0042    0.2450    2.0006 C   0  0  0  0  0  0  0  0  0  0  0  0
   -9.0370    0.1624    2.6745 O   0  0  0  0  0  0  0  0  0  0  0  0
   -7.9949    0.6950    0.5646 C   0  0  0  0  0  0  0  0  0  0  0  0
   -9.2660    1.0527   -0.0164 C   0  0  0  0  0  0  0  0  0  0  0  0
   -9.7679    1.0894   -1.2456 N   0  0  0  0  0  0  0  0  0  0  0  0
  -11.0661    1.5830   -1.1105 C   0  0  0  0  0  0  0  0  0  0  0  0
  -12.0864    1.8156   -2.0489 C   0  0  0  0  0  0  0  0  0  0  0  0
  -13.2759    2.4389   -1.6168 C   0  0  0  0  0  0  0  0  0  0  0  0
  -13.4618    2.8018   -0.2813 C   0  0  0  0  0  0  0  0  0  0  0  0
  -12.4965    2.5048    0.6775 C   0  0  0  0  0  0  0  0  0  0  0  0
  -11.3315    1.8973    0.2125 C   0  0  0  0  0  0  0  0  0  0  0  0
  -10.2325    1.4600    0.8784 N   0  0  0  0  0  0  0  0  0  0  0  0
   -6.8062    0.8299   -0.0967 C   0  0  0  0  0  0  0  0  0  0  0  0
   -6.6774    1.3440   -1.3838 N   0  0  0  0  0  0  0  0  0  0  0  0
   -5.5302    0.4408    0.6163 C   0  0  0  0  0  0  0  0  0  0  0  0
   -4.2345    0.4650    0.0479 C   0  0  0  0  0  0  0  0  0  0  0  0
   -0.6599    0.4784    0.9837 C   0  0  0  0  0  0  0  0  0  0  0  0
    0.5708   -0.4119    0.7113 C   0  0  0  0  0  0  0  0  0  0  0  0
    2.2909   -1.4171   -2.0119 H   0  0  0  0  0  0  0  0  0  0  0  0
    1.8581   -2.4015   -0.5975 H   0  0  0  0  0  0  0  0  0  0  0  0
    2.9156   -0.9860   -0.4270 H   0  0  0  0  0  0  0  0  0  0  0  0
   -0.5272   -2.0427   -1.1353 H   0  0  0  0  0  0  0  0  0  0  0  0
   -0.0985   -1.0421   -2.5292 H   0  0  0  0  0  0  0  0  0  0  0  0
   -2.4095   -0.6304   -1.7344 H   0  0  0  0  0  0  0  0  0  0  0  0
   -1.4327    0.8517   -1.6651 H   0  0  0  0  0  0  0  0  0  0  0  0
   -2.4268   -0.7939    2.6467 H   0  0  0  0  0  0  0  0  0  0  0  0
   -4.5993   -0.7268    3.7113 H   0  0  0  0  0  0  0  0  0  0  0  0
   -6.8886   -0.3065    3.5697 H   0  0  0  0  0  0  0  0  0  0  0  0
  -11.9592    1.5350   -3.0883 H   0  0  0  0  0  0  0  0  0  0  0  0
  -14.0640    2.6536   -2.3351 H   0  0  0  0  0  0  0  0  0  0  0  0
  -14.3705    3.3152    0.0266 H   0  0  0  0  0  0  0  0  0  0  0  0
  -12.6316    2.7510    1.7245 H   0  0  0  0  0  0  0  0  0  0  0  0
  -10.1490    1.3951    1.8843 H   0  0  0  0  0  0  0  0  0  0  0  0
   -7.5733    1.3602   -1.8833 H   0  0  0  0  0  0  0  0  0  0  0  0
   -5.9526    0.9088   -1.9437 H   0  0  0  0  0  0  0  0  0  0  0  0
   -4.1022    0.8389   -0.9616 H   0  0  0  0  0  0  0  0  0  0  0  0
   -0.8326    0.4979    2.0639 H   0  0  0  0  0  0  0  0  0  0  0  0
   -0.4498    1.5137    0.6857 H   0  0  0  0  0  0  0  0  0  0  0  0
    0.3839   -1.4116    1.1264 H   0  0  0  0  0  0  0  0  0  0  0  0
    1.4293    0.0100    1.2508 H   0  0  0  0  0  0  0  0  0  0  0  0
  1  2  1  0  0  0  0
  1 29  1  0  0  0  0
  1 30  1  0  0  0  0
  1 31  1  0  0  0  0
  2  3  1  0  0  0  0
  2 28  1  0  0  0  0
  3  4  1  0  0  0  0
  3 32  1  0  0  0  0
  3 33  1  0  0  0  0
  4  5  1  0  0  0  0
  4 34  1  0  0  0  0
  4 35  1  0  0  0  0
  5  6  1  0  0  0  0
  5 27  1  0  0  0  0
  6  7  1  0  0  0  0
  6 26  2  0  0  0  0
  7  8  2  0  0  0  0
  7 36  1  0  0  0  0
  8  9  1  0  0  0  0
  8 37  1  0  0  0  0
  9 10  1  0  0  0  0
  9 25  2  0  0  0  0
 10 11  1  0  0  0  0
 10 38  1  0  0  0  0
 11 12  2  0  0  0  0
 11 13  1  0  0  0  0
 13 14  1  0  0  0  0
 13 23  2  0  0  0  0
 14 15  2  0  0  0  0
 14 22  1  0  0  0  0
 15 16  1  0  0  0  0
 16 17  1  0  0  0  0
 16 21  2  0  0  0  0
 17 18  2  0  0  0  0
 17 39  1  0  0  0  0
 18 19  1  0  0  0  0
 18 40  1  0  0  0  0
 19 20  2  0  0  0  0
 19 41  1  0  0  0  0
 20 21  1  0  0  0  0
 20 42  1  0  0  0  0
 21 22  1  0  0  0  0
 22 43  1  0  0  0  0
 23 24  1  0  0  0  0
 23 25  1  0  0  0  0
 24 44  1  0  0  0  0
 24 45  1  0  0  0  0
 25 26  1  0  0  0  0
 26 46  1  0  0  0  0
 27 28  1  0  0  0  0
 27 47  1  0  0  0  0
 27 48  1  0  0  0  0
 28 49  1  0  0  0  0
 28 50  1  0  0  0  0
M  END
$$$$
