CHEMBL2408617
 OpenBabel04072215363D

 38 42  0  0  0  0  0  0  0  0999 V2000
   -2.0164    0.0644   -0.7997 C   0  0  0  0  0  0  0  0  0  0  0  0
   -0.6304   -0.0303   -0.4107 N   0  0  0  0  0  0  0  0  0  0  0  0
    0.2291   -1.0701   -0.6358 C   0  0  0  0  0  0  0  0  0  0  0  0
    1.4416   -0.6929   -0.0953 C   0  0  0  0  0  0  0  0  0  0  0  0
    2.6562   -1.4794   -0.1060 C   0  0  0  0  0  0  0  0  0  0  0  0
    2.9944   -2.3847   -1.1102 C   0  0  0  0  0  0  0  0  0  0  0  0
    4.1591   -3.0830   -1.1808 N   0  0  0  0  0  0  0  0  0  0  0  0
    5.1041   -2.9040   -0.2280 C   0  0  0  0  0  0  0  0  0  0  0  0
    6.2925   -3.6055   -0.3433 N   0  0  0  0  0  0  0  0  0  0  0  0
    4.8014   -2.0356    0.8272 C   0  0  0  0  0  0  0  0  0  0  0  0
    5.6078   -1.7454    1.8948 O   0  0  0  0  0  0  0  0  0  0  0  0
    4.9216   -0.8872    2.7109 C   0  0  0  0  0  0  0  0  0  0  0  0
    5.4196   -0.3315    4.0123 C   0  0  0  0  0  0  0  0  0  0  0  0
    4.6242    0.4537    4.8202 C   0  0  0  0  0  0  0  0  0  0  0  0
    5.4068    0.9175    6.2578 S   0  0  0  0  0  0  0  0  0  0  0  0
    6.8519    0.0984    5.8149 C   0  0  0  0  0  0  0  0  0  0  0  0
    8.0316    0.0322    6.5582 C   0  0  0  0  0  0  0  0  0  0  0  0
    9.1032   -0.6338    6.0752 N   0  0  0  0  0  0  0  0  0  0  0  0
    9.0065   -1.2309    4.8737 C   0  0  0  0  0  0  0  0  0  0  0  0
    7.8672   -1.2206    4.0859 C   0  0  0  0  0  0  0  0  0  0  0  0
    6.7339   -0.5324    4.5696 C   0  0  0  0  0  0  0  0  0  0  0  0
    3.6860   -0.6289    2.1528 C   0  0  0  0  0  0  0  0  0  0  0  0
    3.6042   -1.3367    0.9226 C   0  0  0  0  0  0  0  0  0  0  0  0
    1.1960    0.6076    0.4085 C   0  0  0  0  0  0  0  0  0  0  0  0
   -0.0657    1.0013    0.2376 N   0  0  0  0  0  0  0  0  0  0  0  0
   -2.3288   -0.8722   -1.2640 H   0  0  0  0  0  0  0  0  0  0  0  0
   -2.1134    0.8879   -1.5120 H   0  0  0  0  0  0  0  0  0  0  0  0
   -2.6139    0.2589    0.0942 H   0  0  0  0  0  0  0  0  0  0  0  0
   -0.0953   -1.9650   -1.1487 H   0  0  0  0  0  0  0  0  0  0  0  0
    2.3195   -2.5753   -1.9415 H   0  0  0  0  0  0  0  0  0  0  0  0
    6.1928   -4.3985   -0.9653 H   0  0  0  0  0  0  0  0  0  0  0  0
    6.7788   -3.7578    0.5299 H   0  0  0  0  0  0  0  0  0  0  0  0
    3.6054    0.7762    4.6577 H   0  0  0  0  0  0  0  0  0  0  0  0
    8.1428    0.5056    7.5268 H   0  0  0  0  0  0  0  0  0  0  0  0
    9.9065   -1.7394    4.5391 H   0  0  0  0  0  0  0  0  0  0  0  0
    7.8635   -1.7212    3.1243 H   0  0  0  0  0  0  0  0  0  0  0  0
    2.9197   -0.0014    2.5822 H   0  0  0  0  0  0  0  0  0  0  0  0
    1.8831    1.2906    0.8906 H   0  0  0  0  0  0  0  0  0  0  0  0
  1  2  1  0  0  0  0
  1 26  1  0  0  0  0
  1 27  1  0  0  0  0
  1 28  1  0  0  0  0
  2  3  1  0  0  0  0
  2 25  1  0  0  0  0
  3  4  2  0  0  0  0
  3 29  1  0  0  0  0
  4  5  1  0  0  0  0
  4 24  1  0  0  0  0
  5  6  1  0  0  0  0
  5 23  2  0  0  0  0
  6  7  2  0  0  0  0
  6 30  1  0  0  0  0
  7  8  1  0  0  0  0
  8  9  1  0  0  0  0
  8 10  2  0  0  0  0
  9 31  1  0  0  0  0
  9 32  1  0  0  0  0
 10 11  1  0  0  0  0
 10 23  1  0  0  0  0
 11 12  1  0  0  0  0
 12 13  1  0  0  0  0
 12 22  2  0  0  0  0
 13 14  2  0  0  0  0
 13 21  1  0  0  0  0
 14 15  1  0  0  0  0
 14 33  1  0  0  0  0
 15 16  1  0  0  0  0
 16 17  1  0  0  0  0
 16 21  2  0  0  0  0
 17 18  2  0  0  0  0
 17 34  1  0  0  0  0
 18 19  1  0  0  0  0
 19 20  2  0  0  0  0
 19 35  1  0  0  0  0
 20 21  1  0  0  0  0
 20 36  1  0  0  0  0
 22 23  1  0  0  0  0
 22 37  1  0  0  0  0
 24 25  2  0  0  0  0
 24 38  1  0  0  0  0
M  END
$$$$
