CHEMBL3759848
 OpenBabel04072215373D

 68 72  0  0  0  0  0  0  0  0999 V2000
    2.3714   -1.3445   -0.7718 C   0  0  0  0  0  0  0  0  0  0  0  0
    2.3687   -0.0938   -0.0748 O   0  0  0  0  0  0  0  0  0  0  0  0
    3.0186    0.9225   -0.7256 C   0  0  0  0  0  0  0  0  0  0  0  0
    4.1376    0.6325   -1.5066 C   0  0  0  0  0  0  0  0  0  0  0  0
    4.6908    1.5838   -2.3778 C   0  0  0  0  0  0  0  0  0  0  0  0
    5.6904    1.2750   -3.3109 C   0  0  0  0  0  0  0  0  0  0  0  0
    6.1959   -0.0555   -3.3746 N   0  0  0  0  0  0  0  0  0  0  0  0
    6.8664   -0.6357   -4.4711 C   0  0  0  0  0  0  0  0  0  0  0  0
    7.8877   -1.5622   -4.2605 C   0  0  0  0  0  0  0  0  0  0  0  0
    8.6197   -2.0749   -5.3395 C   0  0  0  0  0  0  0  0  0  0  0  0
    8.3286   -1.7002   -6.6539 C   0  0  0  0  0  0  0  0  0  0  0  0
    9.1098   -2.0773   -7.7765 N   0  0  0  0  0  0  0  0  0  0  0  0
   10.2701   -2.8320   -7.7352 C   0  0  0  0  0  0  0  0  0  0  0  0
   10.7196   -3.3927   -6.7401 O   0  0  0  0  0  0  0  0  0  0  0  0
   11.0520   -2.9916   -8.9961 C   0  0  0  0  0  0  0  0  0  0  0  0
   11.0181   -2.0822  -10.0618 C   0  0  0  0  0  0  0  0  0  0  0  0
   11.8691   -2.2641  -11.1611 C   0  0  0  0  0  0  0  0  0  0  0  0
   12.7548   -3.3413  -11.1981 C   0  0  0  0  0  0  0  0  0  0  0  0
   12.7894   -4.2428  -10.1391 C   0  0  0  0  0  0  0  0  0  0  0  0
   13.9003   -5.5559  -10.1636 Cl  0  0  0  0  0  0  0  0  0  0  0  0
   11.9435   -4.0758   -9.0473 C   0  0  0  0  0  0  0  0  0  0  0  0
    7.2262   -0.8722   -6.8730 C   0  0  0  0  0  0  0  0  0  0  0  0
    6.4995   -0.3567   -5.7918 C   0  0  0  0  0  0  0  0  0  0  0  0
    6.1522    2.1985   -4.1689 N   0  0  0  0  0  0  0  0  0  0  0  0
    5.6206    3.4194   -4.0790 C   0  0  0  0  0  0  0  0  0  0  0  0
    4.6634    3.8158   -3.2339 N   0  0  0  0  0  0  0  0  0  0  0  0
    4.1875    2.8881   -2.3915 C   0  0  0  0  0  0  0  0  0  0  0  0
    3.1430    3.1973   -1.5104 C   0  0  0  0  0  0  0  0  0  0  0  0
    2.5569    2.2447   -0.6537 C   0  0  0  0  0  0  0  0  0  0  0  0
    1.5340    2.7336    0.1382 O   0  0  0  0  0  0  0  0  0  0  0  0
    1.3477    2.0288    1.3741 C   0  0  0  0  0  0  0  0  0  0  0  0
    0.2982    2.6792    2.3055 C   0  0  0  0  0  0  0  0  0  0  0  0
    0.1834    2.0031    3.6275 N   0  0  0  0  0  0  0  0  0  0  0  0
   -0.8675    2.6296    4.4494 C   0  0  0  0  0  0  0  0  0  0  0  0
   -0.9399    2.0038    5.8484 C   0  0  0  0  0  0  0  0  0  0  0  0
   -1.1405    0.4944    5.7830 C   0  0  0  0  0  0  0  0  0  0  0  0
   -0.0999   -0.1344    4.8710 C   0  0  0  0  0  0  0  0  0  0  0  0
   -0.0598    0.5550    3.5069 C   0  0  0  0  0  0  0  0  0  0  0  0
    1.5644   -1.9651   -0.3756 H   0  0  0  0  0  0  0  0  0  0  0  0
    3.3142   -1.8726   -0.5939 H   0  0  0  0  0  0  0  0  0  0  0  0
    2.1973   -1.2166   -1.8483 H   0  0  0  0  0  0  0  0  0  0  0  0
    4.5588   -0.3668   -1.4916 H   0  0  0  0  0  0  0  0  0  0  0  0
    6.6337   -0.2880   -2.4884 H   0  0  0  0  0  0  0  0  0  0  0  0
    8.1664   -1.8713   -3.2564 H   0  0  0  0  0  0  0  0  0  0  0  0
    9.4323   -2.7524   -5.1010 H   0  0  0  0  0  0  0  0  0  0  0  0
    8.7930   -1.7308   -8.6714 H   0  0  0  0  0  0  0  0  0  0  0  0
   10.3839   -1.2016  -10.0433 H   0  0  0  0  0  0  0  0  0  0  0  0
   11.8640   -1.5480  -11.9817 H   0  0  0  0  0  0  0  0  0  0  0  0
   13.4308   -3.4627  -12.0410 H   0  0  0  0  0  0  0  0  0  0  0  0
   11.9935   -4.7795   -8.2175 H   0  0  0  0  0  0  0  0  0  0  0  0
    6.9254   -0.5840   -7.8756 H   0  0  0  0  0  0  0  0  0  0  0  0
    5.6518    0.2953   -5.9888 H   0  0  0  0  0  0  0  0  0  0  0  0
    6.0032    4.1624   -4.7697 H   0  0  0  0  0  0  0  0  0  0  0  0
    2.7543    4.2154   -1.5095 H   0  0  0  0  0  0  0  0  0  0  0  0
    2.3061    1.9652    1.9042 H   0  0  0  0  0  0  0  0  0  0  0  0
    0.9555    1.0421    1.1362 H   0  0  0  0  0  0  0  0  0  0  0  0
   -0.6721    2.6914    1.7911 H   0  0  0  0  0  0  0  0  0  0  0  0
    0.5732    3.7306    2.4603 H   0  0  0  0  0  0  0  0  0  0  0  0
   -1.8469    2.5366    3.9615 H   0  0  0  0  0  0  0  0  0  0  0  0
   -0.6625    3.7001    4.5681 H   0  0  0  0  0  0  0  0  0  0  0  0
   -1.7614    2.4549    6.4167 H   0  0  0  0  0  0  0  0  0  0  0  0
   -0.0149    2.2228    6.3969 H   0  0  0  0  0  0  0  0  0  0  0  0
   -2.1446    0.2698    5.4035 H   0  0  0  0  0  0  0  0  0  0  0  0
   -1.0708    0.0579    6.7859 H   0  0  0  0  0  0  0  0  0  0  0  0
   -0.3176   -1.2004    4.7377 H   0  0  0  0  0  0  0  0  0  0  0  0
    0.8892   -0.0691    5.3425 H   0  0  0  0  0  0  0  0  0  0  0  0
   -0.9940    0.3645    2.9631 H   0  0  0  0  0  0  0  0  0  0  0  0
    0.7510    0.0709    2.9542 H   0  0  0  0  0  0  0  0  0  0  0  0
  1  2  1  0  0  0  0
  1 39  1  0  0  0  0
  1 40  1  0  0  0  0
  1 41  1  0  0  0  0
  2  3  1  0  0  0  0
  3  4  1  0  0  0  0
  3 29  2  0  0  0  0
  4  5  2  0  0  0  0
  4 42  1  0  0  0  0
  5  6  1  0  0  0  0
  5 27  1  0  0  0  0
  6  7  1  0  0  0  0
  6 24  2  0  0  0  0
  7  8  1  0  0  0  0
  7 43  1  0  0  0  0
  8  9  1  0  0  0  0
  8 23  2  0  0  0  0
  9 10  2  0  0  0  0
  9 44  1  0  0  0  0
 10 11  1  0  0  0  0
 10 45  1  0  0  0  0
 11 12  1  0  0  0  0
 11 22  2  0  0  0  0
 12 13  1  0  0  0  0
 12 46  1  0  0  0  0
 13 14  2  0  0  0  0
 13 15  1  0  0  0  0
 15 16  1  0  0  0  0
 15 21  2  0  0  0  0
 16 17  2  0  0  0  0
 16 47  1  0  0  0  0
 17 18  1  0  0  0  0
 17 48  1  0  0  0  0
 18 19  2  0  0  0  0
 18 49  1  0  0  0  0
 19 20  1  0  0  0  0
 19 21  1  0  0  0  0
 21 50  1  0  0  0  0
 22 23  1  0  0  0  0
 22 51  1  0  0  0  0
 23 52  1  0  0  0  0
 24 25  1  0  0  0  0
 25 26  2  0  0  0  0
 25 53  1  0  0  0  0
 26 27  1  0  0  0  0
 27 28  2  0  0  0  0
 28 29  1  0  0  0  0
 28 54  1  0  0  0  0
 29 30  1  0  0  0  0
 30 31  1  0  0  0  0
 31 32  1  0  0  0  0
 31 55  1  0  0  0  0
 31 56  1  0  0  0  0
 32 33  1  0  0  0  0
 32 57  1  0  0  0  0
 32 58  1  0  0  0  0
 33 34  1  0  0  0  0
 33 38  1  0  0  0  0
 34 35  1  0  0  0  0
 34 59  1  0  0  0  0
 34 60  1  0  0  0  0
 35 36  1  0  0  0  0
 35 61  1  0  0  0  0
 35 62  1  0  0  0  0
 36 37  1  0  0  0  0
 36 63  1  0  0  0  0
 36 64  1  0  0  0  0
 37 38  1  0  0  0  0
 37 65  1  0  0  0  0
 37 66  1  0  0  0  0
 38 67  1  0  0  0  0
 38 68  1  0  0  0  0
M  END
$$$$
