CHEMBL3925180
 OpenBabel04072215373D

 71 73  0  0  0  0  0  0  0  0999 V2000
    1.4664    0.0689   -8.3419 C   0  0  0  0  0  0  0  0  0  0  0  0
    2.5444   -0.7783   -7.9411 O   0  0  0  0  0  0  0  0  0  0  0  0
    3.4248   -0.1921   -7.0871 C   0  0  0  0  0  0  0  0  0  0  0  0
    3.3409    0.9628   -6.6743 O   0  0  0  0  0  0  0  0  0  0  0  0
    4.5310   -1.1582   -6.7147 C   0  0  0  0  0  0  0  0  0  0  0  0
    5.5307   -0.5156   -5.7498 C   0  0  0  0  0  0  0  0  0  0  0  0
    6.6670   -1.4705   -5.3647 C   0  0  0  0  0  0  0  0  0  0  0  0
    7.6697   -0.8067   -4.4184 C   0  0  0  0  0  0  0  0  0  0  0  0
    8.9828   -1.9237   -3.9193 S   0  0  3  0  0  0  0  0  0  0  0  0
    9.9487   -0.8968   -2.8205 C   0  0  0  0  0  0  0  0  0  0  0  0
    8.3594   -2.9505   -3.1054 O   0  0  0  0  0  0  0  0  0  0  0  0
    9.8491   -2.2341   -5.1663 N   0  0  0  0  0  0  0  0  0  0  0  0
   10.9319   -3.1321   -5.0581 C   0  0  0  0  0  0  0  0  0  0  0  0
   11.5214   -3.3183   -3.9953 O   0  0  0  0  0  0  0  0  0  0  0  0
   11.5127   -3.8171   -6.2456 C   0  0  0  0  0  0  0  0  0  0  0  0
   10.9526   -3.6756   -7.5039 C   0  0  0  0  0  0  0  0  0  0  0  0
   11.4834   -4.2182   -8.6322 N   0  0  0  0  0  0  0  0  0  0  0  0
   12.6229   -4.9346   -8.5121 C   0  0  0  0  0  0  0  0  0  0  0  0
   13.2008   -5.3373   -9.7134 N   0  0  0  0  0  0  0  0  0  0  0  0
   13.2412   -5.1661   -7.2752 C   0  0  0  0  0  0  0  0  0  0  0  0
   14.4212   -5.9808   -7.1569 C   0  0  0  0  0  0  0  0  0  0  0  0
   15.3865   -6.7014   -7.1063 C   0  0  0  0  0  0  0  0  0  0  0  0
   16.5177   -7.5899   -7.1220 C   0  0  0  0  0  0  0  0  0  0  0  0
   17.8058   -7.0676   -7.1815 C   0  0  0  0  0  0  0  0  0  0  0  0
   18.9001   -7.9343   -7.2449 C   0  0  0  0  0  0  0  0  0  0  0  0
   18.6943   -9.3112   -7.2684 C   0  0  0  0  0  0  0  0  0  0  0  0
   17.4099   -9.8667   -7.2018 C   0  0  0  0  0  0  0  0  0  0  0  0
   17.2010  -11.2778   -7.2531 N   0  0  0  0  0  0  0  0  0  0  0  0
   18.1884  -12.2198   -6.9744 C   0  0  0  0  0  0  0  0  0  0  0  0
   19.3123  -11.9522   -6.5598 O   0  0  0  0  0  0  0  0  0  0  0  0
   17.7905  -13.5245   -7.2323 N   0  0  0  0  0  0  0  0  0  0  0  0
   18.6978  -14.5936   -6.9912 C   0  0  0  0  0  0  0  0  0  0  0  0
   19.0061  -15.4796   -8.0257 C   0  0  0  0  0  0  0  0  0  0  0  0
   19.8425  -16.5745   -7.7867 C   0  0  0  0  0  0  0  0  0  0  0  0
   20.3243  -16.8233   -6.5021 C   0  0  0  0  0  0  0  0  0  0  0  0
   20.0175  -15.9512   -5.4524 C   0  0  0  0  0  0  0  0  0  0  0  0
   20.4558  -16.2665   -4.0514 C   0  0  0  0  0  0  0  0  0  0  0  0
   19.2436  -14.8077   -5.7171 C   0  0  0  0  0  0  0  0  0  0  0  0
   16.3187   -8.9860   -7.1219 C   0  0  0  0  0  0  0  0  0  0  0  0
   12.6682   -4.6002   -6.1329 C   0  0  0  0  0  0  0  0  0  0  0  0
    0.8128   -0.4942   -9.0146 H   0  0  0  0  0  0  0  0  0  0  0  0
    1.8456    0.9425   -8.8824 H   0  0  0  0  0  0  0  0  0  0  0  0
    0.8782    0.3799   -7.4721 H   0  0  0  0  0  0  0  0  0  0  0  0
    5.0377   -1.4600   -7.6364 H   0  0  0  0  0  0  0  0  0  0  0  0
    4.0702   -2.0364   -6.2511 H   0  0  0  0  0  0  0  0  0  0  0  0
    5.0032   -0.1880   -4.8443 H   0  0  0  0  0  0  0  0  0  0  0  0
    5.9525    0.3872   -6.2103 H   0  0  0  0  0  0  0  0  0  0  0  0
    7.1830   -1.8070   -6.2706 H   0  0  0  0  0  0  0  0  0  0  0  0
    6.2443   -2.3645   -4.8901 H   0  0  0  0  0  0  0  0  0  0  0  0
    7.1660   -0.4842   -3.4987 H   0  0  0  0  0  0  0  0  0  0  0  0
    8.1323    0.0689   -4.8845 H   0  0  0  0  0  0  0  0  0  0  0  0
    9.3297   -0.6136   -1.9662 H   0  0  0  0  0  0  0  0  0  0  0  0
   10.2859   -0.0068   -3.3564 H   0  0  0  0  0  0  0  0  0  0  0  0
   10.8100   -1.4633   -2.4589 H   0  0  0  0  0  0  0  0  0  0  0  0
   10.0470   -3.0947   -7.6644 H   0  0  0  0  0  0  0  0  0  0  0  0
   12.5444   -5.1574  -10.4663 H   0  0  0  0  0  0  0  0  0  0  0  0
   13.5578   -6.2848   -9.6963 H   0  0  0  0  0  0  0  0  0  0  0  0
   17.9879   -5.9947   -7.1819 H   0  0  0  0  0  0  0  0  0  0  0  0
   19.9155   -7.5476   -7.2888 H   0  0  0  0  0  0  0  0  0  0  0  0
   19.5774   -9.9355   -7.3657 H   0  0  0  0  0  0  0  0  0  0  0  0
   16.2505  -11.6057   -7.3195 H   0  0  0  0  0  0  0  0  0  0  0  0
   17.1900  -13.6323   -8.0369 H   0  0  0  0  0  0  0  0  0  0  0  0
   18.6454  -15.3049   -9.0341 H   0  0  0  0  0  0  0  0  0  0  0  0
   20.1045  -17.2484   -8.5984 H   0  0  0  0  0  0  0  0  0  0  0  0
   20.9277  -17.7111   -6.3214 H   0  0  0  0  0  0  0  0  0  0  0  0
   20.9564  -17.2402   -4.0003 H   0  0  0  0  0  0  0  0  0  0  0  0
   19.5794  -16.3211   -3.3965 H   0  0  0  0  0  0  0  0  0  0  0  0
   21.1468  -15.5085   -3.6722 H   0  0  0  0  0  0  0  0  0  0  0  0
   19.0243  -14.1116   -4.9101 H   0  0  0  0  0  0  0  0  0  0  0  0
   15.3024   -9.3681   -7.0423 H   0  0  0  0  0  0  0  0  0  0  0  0
   13.1314   -4.7560   -5.1596 H   0  0  0  0  0  0  0  0  0  0  0  0
  1  2  1  0  0  0  0
  1 41  1  0  0  0  0
  1 42  1  0  0  0  0
  1 43  1  0  0  0  0
  2  3  1  0  0  0  0
  3  4  2  0  0  0  0
  3  5  1  0  0  0  0
  5  6  1  0  0  0  0
  5 44  1  0  0  0  0
  5 45  1  0  0  0  0
  6  7  1  0  0  0  0
  6 46  1  0  0  0  0
  6 47  1  0  0  0  0
  7  8  1  0  0  0  0
  7 48  1  0  0  0  0
  7 49  1  0  0  0  0
  8  9  1  0  0  0  0
  8 50  1  0  0  0  0
  8 51  1  0  0  0  0
  9 10  1  0  0  0  0
  9 11  2  0  0  0  0
  9 12  2  0  0  0  0
 10 52  1  0  0  0  0
 10 53  1  0  0  0  0
 10 54  1  0  0  0  0
 12 13  1  0  0  0  0
 13 14  2  0  0  0  0
 13 15  1  0  0  0  0
 15 16  1  0  0  0  0
 15 40  2  0  0  0  0
 16 17  2  0  0  0  0
 16 55  1  0  0  0  0
 17 18  1  0  0  0  0
 18 19  1  0  0  0  0
 18 20  2  0  0  0  0
 19 56  1  0  0  0  0
 19 57  1  0  0  0  0
 20 21  1  0  0  0  0
 20 40  1  0  0  0  0
 21 22  3  0  0  0  0
 22 23  1  0  0  0  0
 23 24  1  0  0  0  0
 23 39  2  0  0  0  0
 24 25  2  0  0  0  0
 24 58  1  0  0  0  0
 25 26  1  0  0  0  0
 25 59  1  0  0  0  0
 26 27  2  0  0  0  0
 26 60  1  0  0  0  0
 27 28  1  0  0  0  0
 27 39  1  0  0  0  0
 28 29  1  0  0  0  0
 28 61  1  0  0  0  0
 29 30  2  0  0  0  0
 29 31  1  0  0  0  0
 31 32  1  0  0  0  0
 31 62  1  0  0  0  0
 32 33  1  0  0  0  0
 32 38  2  0  0  0  0
 33 34  2  0  0  0  0
 33 63  1  0  0  0  0
 34 35  1  0  0  0  0
 34 64  1  0  0  0  0
 35 36  2  0  0  0  0
 35 65  1  0  0  0  0
 36 37  1  0  0  0  0
 36 38  1  0  0  0  0
 37 66  1  0  0  0  0
 37 67  1  0  0  0  0
 37 68  1  0  0  0  0
 38 69  1  0  0  0  0
 39 70  1  0  0  0  0
 40 71  1  0  0  0  0
M  END
$$$$
