CHEMBL262607
 OpenBabel04072215363D

 50 53  0  0  0  0  0  0  0  0999 V2000
    2.8493    0.6330   -2.0692 C   0  0  0  0  0  0  0  0  0  0  0  0
    1.4251    0.4123   -1.6436 C   0  0  0  0  0  0  0  0  0  0  0  0
    0.8955   -0.8818   -1.6710 C   0  0  0  0  0  0  0  0  0  0  0  0
   -0.4066   -1.1059   -1.2464 C   0  0  0  0  0  0  0  0  0  0  0  0
   -1.1940   -0.0432   -0.8105 C   0  0  0  0  0  0  0  0  0  0  0  0
   -2.3790   -0.3752   -0.2847 F   0  0  0  0  0  0  0  0  0  0  0  0
   -0.7243    1.2802   -0.8309 C   0  0  0  0  0  0  0  0  0  0  0  0
   -1.5101    2.4197   -0.4831 N   0  0  0  0  0  0  0  0  0  0  0  0
   -2.8962    2.4496   -0.4534 C   0  0  0  0  0  0  0  0  0  0  0  0
   -3.6311    1.5207   -0.7631 O   0  0  0  0  0  0  0  0  0  0  0  0
   -3.4063    3.6994   -0.0926 N   0  0  0  0  0  0  0  0  0  0  0  0
   -4.8154    3.8332    0.0516 C   0  0  0  0  0  0  0  0  0  0  0  0
   -5.5283    2.9560    0.8775 C   0  0  0  0  0  0  0  0  0  0  0  0
   -6.9255    2.9967    0.9296 C   0  0  0  0  0  0  0  0  0  0  0  0
   -7.6304    3.9042    0.1354 C   0  0  0  0  0  0  0  0  0  0  0  0
   -9.1298    3.9034    0.0955 C   0  0  0  0  0  0  0  0  0  0  0  0
   -9.7551    5.0136   -0.1602 N   0  0  0  0  0  0  0  0  0  0  0  0
  -11.1802    5.0296   -0.2046 C   0  0  0  0  0  0  0  0  0  0  0  0
  -11.8250    5.7859   -1.1912 C   0  0  0  0  0  0  0  0  0  0  0  0
  -11.0736    6.3899   -2.2138 N   0  0  0  0  0  0  0  0  0  0  0  0
  -13.1574    5.9284   -1.2840 N   0  0  0  0  0  0  0  0  0  0  0  0
  -13.8659    5.3019   -0.3394 C   0  0  0  0  0  0  0  0  0  0  0  0
  -13.3787    4.5554    0.6603 N   0  0  0  0  0  0  0  0  0  0  0  0
  -12.0376    4.4208    0.7191 C   0  0  0  0  0  0  0  0  0  0  0  0
  -11.6124    3.6676    1.8050 N   0  0  0  0  0  0  0  0  0  0  0  0
  -10.5831    2.6455    1.6654 C   0  0  0  0  0  0  0  0  0  0  0  0
   -9.8657    2.5955    0.3275 C   0  0  0  0  0  0  0  0  0  0  0  0
   -6.9134    4.8215   -0.6487 C   0  0  0  0  0  0  0  0  0  0  0  0
   -5.5088    4.8017   -0.6752 C   0  0  0  0  0  0  0  0  0  0  0  0
    0.6121    1.4880   -1.2207 C   0  0  0  0  0  0  0  0  0  0  0  0
    3.3311   -0.3104   -2.3531 H   0  0  0  0  0  0  0  0  0  0  0  0
    3.4314    1.0612   -1.2477 H   0  0  0  0  0  0  0  0  0  0  0  0
    2.8901    1.2967   -2.9375 H   0  0  0  0  0  0  0  0  0  0  0  0
    1.4962   -1.7266   -2.0010 H   0  0  0  0  0  0  0  0  0  0  0  0
   -0.8230   -2.1085   -1.2305 H   0  0  0  0  0  0  0  0  0  0  0  0
   -1.0284    3.2993   -0.3798 H   0  0  0  0  0  0  0  0  0  0  0  0
   -2.9341    4.4754   -0.5322 H   0  0  0  0  0  0  0  0  0  0  0  0
   -4.9993    2.2135    1.4718 H   0  0  0  0  0  0  0  0  0  0  0  0
   -7.4339    2.2992    1.5873 H   0  0  0  0  0  0  0  0  0  0  0  0
  -10.2303    6.7946   -1.8181 H   0  0  0  0  0  0  0  0  0  0  0  0
  -11.6700    7.0354   -2.7175 H   0  0  0  0  0  0  0  0  0  0  0  0
  -14.9456    5.4088   -0.3864 H   0  0  0  0  0  0  0  0  0  0  0  0
  -12.4533    3.3379    2.2751 H   0  0  0  0  0  0  0  0  0  0  0  0
  -11.0475    1.6684    1.8456 H   0  0  0  0  0  0  0  0  0  0  0  0
   -9.8581    2.7968    2.4736 H   0  0  0  0  0  0  0  0  0  0  0  0
  -10.5660    2.4218   -0.4989 H   0  0  0  0  0  0  0  0  0  0  0  0
   -9.1775    1.7453    0.3064 H   0  0  0  0  0  0  0  0  0  0  0  0
   -7.4472    5.5309   -1.2782 H   0  0  0  0  0  0  0  0  0  0  0  0
   -4.9849    5.4895   -1.3322 H   0  0  0  0  0  0  0  0  0  0  0  0
    1.0336    2.4914   -1.2243 H   0  0  0  0  0  0  0  0  0  0  0  0
  1  2  1  0  0  0  0
  1 31  1  0  0  0  0
  1 32  1  0  0  0  0
  1 33  1  0  0  0  0
  2  3  1  0  0  0  0
  2 30  2  0  0  0  0
  3  4  2  0  0  0  0
  3 34  1  0  0  0  0
  4  5  1  0  0  0  0
  4 35  1  0  0  0  0
  5  6  1  0  0  0  0
  5  7  2  0  0  0  0
  7  8  1  0  0  0  0
  7 30  1  0  0  0  0
  8  9  1  0  0  0  0
  8 36  1  0  0  0  0
  9 10  2  0  0  0  0
  9 11  1  0  0  0  0
 11 12  1  0  0  0  0
 11 37  1  0  0  0  0
 12 13  1  0  0  0  0
 12 29  2  0  0  0  0
 13 14  2  0  0  0  0
 13 38  1  0  0  0  0
 14 15  1  0  0  0  0
 14 39  1  0  0  0  0
 15 16  1  0  0  0  0
 15 28  2  0  0  0  0
 16 17  2  0  0  0  0
 16 27  1  0  0  0  0
 17 18  1  0  0  0  0
 18 19  1  0  0  0  0
 18 24  2  0  0  0  0
 19 20  1  0  0  0  0
 19 21  2  0  0  0  0
 20 40  1  0  0  0  0
 20 41  1  0  0  0  0
 21 22  1  0  0  0  0
 22 23  2  0  0  0  0
 22 42  1  0  0  0  0
 23 24  1  0  0  0  0
 24 25  1  0  0  0  0
 25 26  1  0  0  0  0
 25 43  1  0  0  0  0
 26 27  1  0  0  0  0
 26 44  1  0  0  0  0
 26 45  1  0  0  0  0
 27 46  1  0  0  0  0
 27 47  1  0  0  0  0
 28 29  1  0  0  0  0
 28 48  1  0  0  0  0
 29 49  1  0  0  0  0
 30 50  1  0  0  0  0
M  END
$$$$
