CHEMBL2063319
 OpenBabel04072215363D

 68 72  0  0  0  0  0  0  0  0999 V2000
    2.4405   -0.4485   -0.1018 C   0  0  0  0  0  0  0  0  0  0  0  0
    1.0724    0.0126   -0.3257 N   0  0  0  0  0  0  0  0  0  0  0  0
    0.1667   -1.1373   -0.5552 C   0  0  0  0  0  0  0  0  0  0  0  0
   -1.3122   -0.7116   -0.7304 C   0  0  0  0  0  0  0  0  0  0  0  0
   -1.7238    0.0709    0.4467 N   0  0  0  0  0  0  0  0  0  0  0  0
   -3.0093    0.0405    0.9412 C   0  0  0  0  0  0  0  0  0  0  0  0
   -3.2472    0.3535    2.2905 C   0  0  0  0  0  0  0  0  0  0  0  0
   -4.5212    0.2780    2.8607 C   0  0  0  0  0  0  0  0  0  0  0  0
   -5.5977   -0.1227    2.0722 C   0  0  0  0  0  0  0  0  0  0  0  0
   -6.9774   -0.2151    2.5922 C   0  0  0  0  0  0  0  0  0  0  0  0
   -7.9361   -0.1468    1.8403 O   0  0  0  0  0  0  0  0  0  0  0  0
   -7.1494   -0.3964    4.0067 N   0  0  0  0  0  0  0  0  0  0  0  0
   -8.4020   -0.5052    4.5966 C   0  0  0  0  0  0  0  0  0  0  0  0
   -9.6303   -0.6854    4.0044 C   0  0  0  0  0  0  0  0  0  0  0  0
  -10.5729   -0.7423    5.0632 C   0  0  0  0  0  0  0  0  0  0  0  0
  -12.0159   -0.9721    4.9775 C   0  0  0  0  0  0  0  0  0  0  0  0
  -12.6846   -1.4983    6.0843 C   0  0  0  0  0  0  0  0  0  0  0  0
  -14.0501   -1.7740    6.0341 C   0  0  0  0  0  0  0  0  0  0  0  0
  -14.7949   -1.5299    4.8799 C   0  0  0  0  0  0  0  0  0  0  0  0
  -16.1677   -1.8455    4.7711 N   0  0  0  0  0  0  0  0  0  0  0  0
  -16.9310   -2.4942    5.7146 C   0  0  0  0  0  0  0  0  0  0  0  0
  -16.5995   -2.7907    6.8523 O   0  0  0  0  0  0  0  0  0  0  0  0
  -18.1210   -2.8541    5.1664 O   0  0  0  0  0  0  0  0  0  0  0  0
  -18.7620   -3.9388    5.8525 C   0  0  0  0  0  0  0  0  0  0  0  0
  -19.9860   -3.5297    6.6326 C   0  0  0  0  0  0  0  0  0  0  0  0
  -21.2563   -3.6009    6.0463 C   0  0  0  0  0  0  0  0  0  0  0  0
  -22.4020   -3.3452    6.7974 C   0  0  0  0  0  0  0  0  0  0  0  0
  -22.2916   -3.0016    8.1445 C   0  0  0  0  0  0  0  0  0  0  0  0
  -21.0319   -2.8948    8.7330 C   0  0  0  0  0  0  0  0  0  0  0  0
  -19.8825   -3.1507    7.9801 C   0  0  0  0  0  0  0  0  0  0  0  0
  -14.1366   -0.9845    3.7701 C   0  0  0  0  0  0  0  0  0  0  0  0
  -12.7567   -0.7088    3.8154 C   0  0  0  0  0  0  0  0  0  0  0  0
   -9.9516   -0.6023    6.2470 N   0  0  0  0  0  0  0  0  0  0  0  0
   -8.6565   -0.4748    5.9398 N   0  0  0  0  0  0  0  0  0  0  0  0
   -5.3903   -0.4273    0.7231 C   0  0  0  0  0  0  0  0  0  0  0  0
   -4.1085   -0.3519    0.1718 C   0  0  0  0  0  0  0  0  0  0  0  0
   -0.8720    1.2537    0.6747 C   0  0  0  0  0  0  0  0  0  0  0  0
    0.5949    0.7972    0.8358 C   0  0  0  0  0  0  0  0  0  0  0  0
    2.8059   -0.9993   -0.9750 H   0  0  0  0  0  0  0  0  0  0  0  0
    2.5220   -1.0992    0.7764 H   0  0  0  0  0  0  0  0  0  0  0  0
    3.1124    0.4052    0.0386 H   0  0  0  0  0  0  0  0  0  0  0  0
    0.2261   -1.8356    0.2917 H   0  0  0  0  0  0  0  0  0  0  0  0
    0.4800   -1.6824   -1.4530 H   0  0  0  0  0  0  0  0  0  0  0  0
   -1.9115   -1.6233   -0.8372 H   0  0  0  0  0  0  0  0  0  0  0  0
   -1.4333   -0.1153   -1.6438 H   0  0  0  0  0  0  0  0  0  0  0  0
   -2.4111    0.6296    2.9307 H   0  0  0  0  0  0  0  0  0  0  0  0
   -4.6263    0.5581    3.9028 H   0  0  0  0  0  0  0  0  0  0  0  0
   -6.3399   -0.4573    4.6070 H   0  0  0  0  0  0  0  0  0  0  0  0
   -9.8467   -0.8061    2.9533 H   0  0  0  0  0  0  0  0  0  0  0  0
  -12.1445   -1.7169    7.0038 H   0  0  0  0  0  0  0  0  0  0  0  0
  -14.4924   -2.1952    6.9315 H   0  0  0  0  0  0  0  0  0  0  0  0
  -16.6352   -1.6860    3.8908 H   0  0  0  0  0  0  0  0  0  0  0  0
  -18.0766   -4.5005    6.5016 H   0  0  0  0  0  0  0  0  0  0  0  0
  -19.0553   -4.6585    5.0797 H   0  0  0  0  0  0  0  0  0  0  0  0
  -21.3616   -3.8885    5.0003 H   0  0  0  0  0  0  0  0  0  0  0  0
  -23.3838   -3.4324    6.3401 H   0  0  0  0  0  0  0  0  0  0  0  0
  -23.1861   -2.8208    8.7352 H   0  0  0  0  0  0  0  0  0  0  0  0
  -20.9456   -2.6267    9.7832 H   0  0  0  0  0  0  0  0  0  0  0  0
  -18.9080   -3.0848    8.4597 H   0  0  0  0  0  0  0  0  0  0  0  0
  -14.6784   -0.7769    2.8493 H   0  0  0  0  0  0  0  0  0  0  0  0
  -12.2807   -0.2887    2.9331 H   0  0  0  0  0  0  0  0  0  0  0  0
   -8.0048   -0.3509    6.7058 H   0  0  0  0  0  0  0  0  0  0  0  0
   -6.2216   -0.7273    0.0861 H   0  0  0  0  0  0  0  0  0  0  0  0
   -3.9916   -0.5875   -0.8832 H   0  0  0  0  0  0  0  0  0  0  0  0
   -1.1616    1.8230    1.5641 H   0  0  0  0  0  0  0  0  0  0  0  0
   -0.9609    1.9376   -0.1799 H   0  0  0  0  0  0  0  0  0  0  0  0
    0.6750    0.2006    1.7553 H   0  0  0  0  0  0  0  0  0  0  0  0
    1.2225    1.6867    0.9636 H   0  0  0  0  0  0  0  0  0  0  0  0
  1  2  1  0  0  0  0
  1 39  1  0  0  0  0
  1 40  1  0  0  0  0
  1 41  1  0  0  0  0
  2  3  1  0  0  0  0
  2 38  1  0  0  0  0
  3  4  1  0  0  0  0
  3 42  1  0  0  0  0
  3 43  1  0  0  0  0
  4  5  1  0  0  0  0
  4 44  1  0  0  0  0
  4 45  1  0  0  0  0
  5  6  1  0  0  0  0
  5 37  1  0  0  0  0
  6  7  1  0  0  0  0
  6 36  2  0  0  0  0
  7  8  2  0  0  0  0
  7 46  1  0  0  0  0
  8  9  1  0  0  0  0
  8 47  1  0  0  0  0
  9 10  1  0  0  0  0
  9 35  2  0  0  0  0
 10 11  2  0  0  0  0
 10 12  1  0  0  0  0
 12 13  1  0  0  0  0
 12 48  1  0  0  0  0
 13 14  2  0  0  0  0
 13 34  1  0  0  0  0
 14 15  1  0  0  0  0
 14 49  1  0  0  0  0
 15 16  1  0  0  0  0
 15 33  2  0  0  0  0
 16 17  1  0  0  0  0
 16 32  2  0  0  0  0
 17 18  2  0  0  0  0
 17 50  1  0  0  0  0
 18 19  1  0  0  0  0
 18 51  1  0  0  0  0
 19 20  1  0  0  0  0
 19 31  2  0  0  0  0
 20 21  1  0  0  0  0
 20 52  1  0  0  0  0
 21 22  2  0  0  0  0
 21 23  1  0  0  0  0
 23 24  1  0  0  0  0
 24 25  1  0  0  0  0
 24 53  1  0  0  0  0
 24 54  1  0  0  0  0
 25 26  1  0  0  0  0
 25 30  2  0  0  0  0
 26 27  2  0  0  0  0
 26 55  1  0  0  0  0
 27 28  1  0  0  0  0
 27 56  1  0  0  0  0
 28 29  2  0  0  0  0
 28 57  1  0  0  0  0
 29 30  1  0  0  0  0
 29 58  1  0  0  0  0
 30 59  1  0  0  0  0
 31 32  1  0  0  0  0
 31 60  1  0  0  0  0
 32 61  1  0  0  0  0
 33 34  1  0  0  0  0
 34 62  1  0  0  0  0
 35 36  1  0  0  0  0
 35 63  1  0  0  0  0
 36 64  1  0  0  0  0
 37 38  1  0  0  0  0
 37 65  1  0  0  0  0
 37 66  1  0  0  0  0
 38 67  1  0  0  0  0
 38 68  1  0  0  0  0
M  END
$$$$
