CHEMBL4060841
 OpenBabel04072215373D

 48 51  0  0  0  0  0  0  0  0999 V2000
    3.2600   -0.9740   -4.2330 N   0  0  0  0  0  0  0  0  0  0  0  0
    3.7717   -0.6054   -3.0082 C   0  0  0  0  0  0  0  0  0  0  0  0
    3.3960   -1.3343   -1.9557 N   0  0  0  0  0  0  0  0  0  0  0  0
    3.9328   -0.9822   -0.7767 C   0  0  0  0  0  0  0  0  0  0  0  0
    4.8317    0.0552   -0.6255 C   0  0  0  0  0  0  0  0  0  0  0  0
    5.3918    0.3961    0.6088 C   0  0  0  0  0  0  0  0  0  0  0  0
    6.2827    1.4560    0.6806 C   0  0  0  0  0  0  0  0  0  0  0  0
    6.6091    2.2216   -0.4582 C   0  0  0  0  0  0  0  0  0  0  0  0
    7.4587    3.4239   -0.3127 C   0  0  0  0  0  0  0  0  0  0  0  0
    8.3628    3.8734   -1.2892 C   0  0  0  0  0  0  0  0  0  0  0  0
    9.1516    5.0228   -1.0779 C   0  0  0  0  0  0  0  0  0  0  0  0
    9.0427    5.7643    0.1047 C   0  0  0  0  0  0  0  0  0  0  0  0
    9.7887    6.9616    0.2115 N   0  0  0  0  0  0  0  0  0  0  0  0
    9.6514    8.0517    1.0753 C   0  0  0  0  0  0  0  0  0  0  0  0
    8.5506    8.2578    2.3332 S   0  0  0  0  0  0  0  0  0  0  0  0
   10.5043    9.0861    0.6413 N   0  0  0  0  0  0  0  0  0  0  0  0
   10.8983   10.1582    1.4860 C   0  0  0  0  0  0  0  0  0  0  0  0
   11.3628    9.8748    2.7749 C   0  0  0  0  0  0  0  0  0  0  0  0
   11.5645   10.9037    3.6833 C   0  0  0  0  0  0  0  0  0  0  0  0
   11.3558   12.2343    3.3157 C   0  0  0  0  0  0  0  0  0  0  0  0
   11.4778   13.1053    4.3495 O   0  0  0  0  0  0  0  0  0  0  0  0
   11.8901   14.4407    4.1222 C   0  0  0  0  0  0  0  0  0  0  0  0
   12.3065   14.6803    2.8624 F   0  0  0  0  0  0  0  0  0  0  0  0
   10.8766   15.2816    4.4182 F   0  0  0  0  0  0  0  0  0  0  0  0
   12.9193   14.7105    4.9568 F   0  0  0  0  0  0  0  0  0  0  0  0
   10.9735   12.5314    2.0056 C   0  0  0  0  0  0  0  0  0  0  0  0
   10.7740   11.4941    1.0832 C   0  0  0  0  0  0  0  0  0  0  0  0
   10.2403   11.9405   -0.6848 Br  0  0  0  0  0  0  0  0  0  0  0  0
    8.1859    5.2921    1.0867 C   0  0  0  0  0  0  0  0  0  0  0  0
    7.3877    4.1731    0.8685 C   0  0  0  0  0  0  0  0  0  0  0  0
    6.0389    1.8307   -1.6827 C   0  0  0  0  0  0  0  0  0  0  0  0
    5.1578    0.7541   -1.7891 C   0  0  0  0  0  0  0  0  0  0  0  0
    4.6400    0.4135   -2.9778 N   0  0  0  0  0  0  0  0  0  0  0  0
    2.9842   -1.9454   -4.1990 H   0  0  0  0  0  0  0  0  0  0  0  0
    3.8991   -0.7004   -4.9653 H   0  0  0  0  0  0  0  0  0  0  0  0
    3.6013   -1.5754    0.0706 H   0  0  0  0  0  0  0  0  0  0  0  0
    5.1386   -0.1470    1.5152 H   0  0  0  0  0  0  0  0  0  0  0  0
    6.7175    1.6945    1.6477 H   0  0  0  0  0  0  0  0  0  0  0  0
    8.4707    3.3403   -2.2322 H   0  0  0  0  0  0  0  0  0  0  0  0
    9.8216    5.3427   -1.8720 H   0  0  0  0  0  0  0  0  0  0  0  0
   10.5128    7.0815   -0.4858 H   0  0  0  0  0  0  0  0  0  0  0  0
   10.2810    9.3759   -0.3067 H   0  0  0  0  0  0  0  0  0  0  0  0
   11.5130    8.8478    3.0958 H   0  0  0  0  0  0  0  0  0  0  0  0
   11.8437   10.6584    4.7063 H   0  0  0  0  0  0  0  0  0  0  0  0
   10.7830   13.5542    1.6907 H   0  0  0  0  0  0  0  0  0  0  0  0
    8.0999    5.7426    2.0645 H   0  0  0  0  0  0  0  0  0  0  0  0
    6.6871    3.9095    1.6590 H   0  0  0  0  0  0  0  0  0  0  0  0
    6.2553    2.3918   -2.5917 H   0  0  0  0  0  0  0  0  0  0  0  0
  1  2  1  0  0  0  0
  1 34  1  0  0  0  0
  1 35  1  0  0  0  0
  2  3  1  0  0  0  0
  2 33  2  0  0  0  0
  3  4  2  0  0  0  0
  4  5  1  0  0  0  0
  4 36  1  0  0  0  0
  5  6  1  0  0  0  0
  5 32  2  0  0  0  0
  6  7  2  0  0  0  0
  6 37  1  0  0  0  0
  7  8  1  0  0  0  0
  7 38  1  0  0  0  0
  8  9  1  0  0  0  0
  8 31  2  0  0  0  0
  9 10  1  0  0  0  0
  9 30  2  0  0  0  0
 10 11  2  0  0  0  0
 10 39  1  0  0  0  0
 11 12  1  0  0  0  0
 11 40  1  0  0  0  0
 12 13  1  0  0  0  0
 12 29  2  0  0  0  0
 13 14  1  0  0  0  0
 13 41  1  0  0  0  0
 14 15  2  0  0  0  0
 14 16  1  0  0  0  0
 16 17  1  0  0  0  0
 16 42  1  0  0  0  0
 17 18  1  0  0  0  0
 17 27  2  0  0  0  0
 18 19  2  0  0  0  0
 18 43  1  0  0  0  0
 19 20  1  0  0  0  0
 19 44  1  0  0  0  0
 20 21  1  0  0  0  0
 20 26  2  0  0  0  0
 21 22  1  0  0  0  0
 22 23  1  0  0  0  0
 22 24  1  0  0  0  0
 22 25  1  0  0  0  0
 26 27  1  0  0  0  0
 26 45  1  0  0  0  0
 27 28  1  0  0  0  0
 29 30  1  0  0  0  0
 29 46  1  0  0  0  0
 30 47  1  0  0  0  0
 31 32  1  0  0  0  0
 31 48  1  0  0  0  0
 32 33  1  0  0  0  0
M  END
$$$$
