CHEMBL4226283
 OpenBabel04072215383D

 48 50  0  0  0  0  0  0  0  0999 V2000
    2.0061   -2.9641   -0.5473 C   0  0  0  0  0  0  0  0  0  0  0  0
    3.1873   -2.2670   -0.1004 N   0  0  0  0  0  0  0  0  0  0  0  0
    4.4417   -2.6953   -0.4854 C   0  0  0  0  0  0  0  0  0  0  0  0
    4.6340   -3.6789   -1.1876 O   0  0  0  0  0  0  0  0  0  0  0  0
    5.5885   -1.8705   -0.0361 C   0  0  0  0  0  0  0  0  0  0  0  0
    5.5965   -1.1526    1.1557 C   0  0  0  0  0  0  0  0  0  0  0  0
    6.7258   -0.3997    1.4916 C   0  0  0  0  0  0  0  0  0  0  0  0
    7.8146   -0.3807    0.6221 C   0  0  0  0  0  0  0  0  0  0  0  0
    9.2602    0.5769    1.0566 S   0  0  0  0  0  0  0  0  0  0  0  0
    9.8873    1.0548   -0.5438 C   0  0  0  0  0  0  0  0  0  0  0  0
    9.3760    2.1761   -1.1974 C   0  0  0  0  0  0  0  0  0  0  0  0
    9.8470    2.5225   -2.4644 C   0  0  0  0  0  0  0  0  0  0  0  0
   10.8499    1.7670   -3.0776 C   0  0  0  0  0  0  0  0  0  0  0  0
   11.4110    0.6797   -2.4137 C   0  0  0  0  0  0  0  0  0  0  0  0
   12.3886   -0.1671   -2.9643 N   0  0  0  0  0  0  0  0  0  0  0  0
   13.1684   -0.0926   -4.0975 C   0  0  0  0  0  0  0  0  0  0  0  0
   13.7307    1.2633   -4.8872 S   0  0  0  0  0  0  0  0  0  0  0  0
   13.6154   -1.3299   -4.5238 N   0  0  0  0  0  0  0  0  0  0  0  0
   12.8953   -2.5431   -4.4832 C   0  0  0  0  0  0  0  0  0  0  0  0
   13.5932   -3.7360   -4.6158 C   0  0  0  0  0  0  0  0  0  0  0  0
   12.9001   -4.9488   -4.6011 C   0  0  0  0  0  0  0  0  0  0  0  0
   11.5020   -4.9829   -4.4749 C   0  0  0  0  0  0  0  0  0  0  0  0
   10.7047   -6.7031   -4.5377 Br  0  0  0  0  0  0  0  0  0  0  0  0
   10.7778   -3.7949   -4.3498 C   0  0  0  0  0  0  0  0  0  0  0  0
    9.2820   -3.6799   -4.1868 C   0  0  0  0  0  0  0  0  0  0  0  0
    8.5825   -4.8429   -4.1522 F   0  0  0  0  0  0  0  0  0  0  0  0
    8.9568   -3.0311   -3.0306 F   0  0  0  0  0  0  0  0  0  0  0  0
    8.7152   -2.9433   -5.1846 F   0  0  0  0  0  0  0  0  0  0  0  0
   11.4994   -2.5799   -4.3698 C   0  0  0  0  0  0  0  0  0  0  0  0
   10.9134    0.3210   -1.1500 C   0  0  0  0  0  0  0  0  0  0  0  0
    7.8321   -1.0922   -0.5263 N   0  0  0  0  0  0  0  0  0  0  0  0
    6.7286   -1.8251   -0.8281 C   0  0  0  0  0  0  0  0  0  0  0  0
    1.1242   -2.4028   -0.2297 H   0  0  0  0  0  0  0  0  0  0  0  0
    1.9917   -3.9630   -0.1028 H   0  0  0  0  0  0  0  0  0  0  0  0
    2.0193   -3.0521   -1.6370 H   0  0  0  0  0  0  0  0  0  0  0  0
    3.0712   -1.3609    0.3311 H   0  0  0  0  0  0  0  0  0  0  0  0
    4.7563   -1.1899    1.8434 H   0  0  0  0  0  0  0  0  0  0  0  0
    6.7496    0.1558    2.4244 H   0  0  0  0  0  0  0  0  0  0  0  0
    8.5975    2.7773   -0.7371 H   0  0  0  0  0  0  0  0  0  0  0  0
    9.4223    3.3759   -2.9863 H   0  0  0  0  0  0  0  0  0  0  0  0
   11.1428    2.0371   -4.0854 H   0  0  0  0  0  0  0  0  0  0  0  0
   12.5842   -0.9988   -2.4195 H   0  0  0  0  0  0  0  0  0  0  0  0
   14.4669   -1.3174   -5.0784 H   0  0  0  0  0  0  0  0  0  0  0  0
   14.6768   -3.7438   -4.6959 H   0  0  0  0  0  0  0  0  0  0  0  0
   13.4663   -5.8747   -4.6880 H   0  0  0  0  0  0  0  0  0  0  0  0
   10.9273   -1.6509   -4.3370 H   0  0  0  0  0  0  0  0  0  0  0  0
   11.3094   -0.5505   -0.6342 H   0  0  0  0  0  0  0  0  0  0  0  0
    6.7933   -2.3853   -1.7586 H   0  0  0  0  0  0  0  0  0  0  0  0
  1  2  1  0  0  0  0
  1 33  1  0  0  0  0
  1 34  1  0  0  0  0
  1 35  1  0  0  0  0
  2  3  1  0  0  0  0
  2 36  1  0  0  0  0
  3  4  2  0  0  0  0
  3  5  1  0  0  0  0
  5  6  1  0  0  0  0
  5 32  2  0  0  0  0
  6  7  2  0  0  0  0
  6 37  1  0  0  0  0
  7  8  1  0  0  0  0
  7 38  1  0  0  0  0
  8  9  1  0  0  0  0
  8 31  2  0  0  0  0
  9 10  1  0  0  0  0
 10 11  1  0  0  0  0
 10 30  2  0  0  0  0
 11 12  2  0  0  0  0
 11 39  1  0  0  0  0
 12 13  1  0  0  0  0
 12 40  1  0  0  0  0
 13 14  2  0  0  0  0
 13 41  1  0  0  0  0
 14 15  1  0  0  0  0
 14 30  1  0  0  0  0
 15 16  1  0  0  0  0
 15 42  1  0  0  0  0
 16 17  2  0  0  0  0
 16 18  1  0  0  0  0
 18 19  1  0  0  0  0
 18 43  1  0  0  0  0
 19 20  1  0  0  0  0
 19 29  2  0  0  0  0
 20 21  2  0  0  0  0
 20 44  1  0  0  0  0
 21 22  1  0  0  0  0
 21 45  1  0  0  0  0
 22 23  1  0  0  0  0
 22 24  2  0  0  0  0
 24 25  1  0  0  0  0
 24 29  1  0  0  0  0
 25 26  1  0  0  0  0
 25 27  1  0  0  0  0
 25 28  1  0  0  0  0
 29 46  1  0  0  0  0
 30 47  1  0  0  0  0
 31 32  1  0  0  0  0
 32 48  1  0  0  0  0
M  END
$$$$
