CHEMBL3354189
 OpenBabel04072215363D

 57 61  0  0  0  0  0  0  0  0999 V2000
   11.3183   -4.6891    2.1172 C   0  0  0  0  0  0  0  0  0  0  0  0
    9.9944   -4.7410    1.5914 O   0  0  0  0  0  0  0  0  0  0  0  0
    9.0406   -4.0247    2.3900 C   0  0  0  0  0  0  0  0  0  0  0  0
    8.5507   -4.8664    3.5787 C   0  0  0  0  0  0  0  0  0  0  0  0
    7.5065   -5.9264    3.2157 C   0  0  0  0  0  0  0  0  0  0  0  0
    6.4918   -5.3658    2.3388 N   0  0  0  0  0  0  0  0  0  0  0  0
    5.1588   -5.3244    2.6769 C   0  0  0  0  0  0  0  0  0  0  0  0
    4.2815   -4.8512    1.7819 N   0  0  0  0  0  0  0  0  0  0  0  0
    2.9848   -4.8097    2.1283 C   0  0  0  0  0  0  0  0  0  0  0  0
    2.5180   -5.1957    3.3557 C   0  0  0  0  0  0  0  0  0  0  0  0
    3.4623   -5.6800    4.2297 C   0  0  0  0  0  0  0  0  0  0  0  0
    3.0208   -6.1202    5.5007 N   0  0  0  0  0  0  0  0  0  0  0  0
    3.7588   -6.9523    6.3549 C   0  0  0  0  0  0  0  0  0  0  0  0
    4.3947   -8.0705    5.8364 C   0  0  0  0  0  0  0  0  0  0  0  0
    5.1633   -8.8430    6.7044 C   0  0  0  0  0  0  0  0  0  0  0  0
    5.2418   -8.5123    8.0571 C   0  0  0  0  0  0  0  0  0  0  0  0
    6.1147   -9.4572    8.6592 C   0  0  0  0  0  0  0  0  0  0  0  0
    6.5379  -10.3264    7.6782 C   0  0  0  0  0  0  0  0  0  0  0  0
    5.9447   -9.9600    6.4926 N   0  0  0  0  0  0  0  0  0  0  0  0
    6.1437  -10.6652    5.2374 C   0  0  0  0  0  0  0  0  0  0  0  0
    6.7228   -9.8237    4.0974 C   0  0  0  0  0  0  0  0  0  0  0  0
    6.3097  -10.5400    2.8143 C   0  0  0  0  0  0  0  0  0  0  0  0
    5.2392  -11.5605    3.1947 C   0  0  0  0  0  0  0  0  0  0  0  0
    4.8766  -11.2851    4.6467 C   0  0  0  0  0  0  0  0  0  0  0  0
    4.5144   -7.4076    8.5221 C   0  0  0  0  0  0  0  0  0  0  0  0
    3.7746   -6.6457    7.6713 N   0  0  0  0  0  0  0  0  0  0  0  0
    4.7673   -5.7569    3.8862 N   0  0  0  0  0  0  0  0  0  0  0  0
    6.9742   -4.7494    1.1136 C   0  0  0  0  0  0  0  0  0  0  0  0
    7.8864   -3.5832    1.4831 C   0  0  0  0  0  0  0  0  0  0  0  0
   11.9843   -5.2117    1.4248 H   0  0  0  0  0  0  0  0  0  0  0  0
   11.3738   -5.1885    3.0876 H   0  0  0  0  0  0  0  0  0  0  0  0
   11.6653   -3.6542    2.2089 H   0  0  0  0  0  0  0  0  0  0  0  0
    9.5243   -3.1153    2.7708 H   0  0  0  0  0  0  0  0  0  0  0  0
    8.1070   -4.1874    4.3173 H   0  0  0  0  0  0  0  0  0  0  0  0
    9.3903   -5.3697    4.0697 H   0  0  0  0  0  0  0  0  0  0  0  0
    7.0961   -6.3415    4.1424 H   0  0  0  0  0  0  0  0  0  0  0  0
    7.9938   -6.7632    2.6984 H   0  0  0  0  0  0  0  0  0  0  0  0
    2.3111   -4.4508    1.3568 H   0  0  0  0  0  0  0  0  0  0  0  0
    1.4662   -5.1644    3.6001 H   0  0  0  0  0  0  0  0  0  0  0  0
    2.6365   -5.3629    6.0505 H   0  0  0  0  0  0  0  0  0  0  0  0
    4.3126   -8.3010    4.7766 H   0  0  0  0  0  0  0  0  0  0  0  0
    6.4121   -9.4926    9.6992 H   0  0  0  0  0  0  0  0  0  0  0  0
    7.2098  -11.1729    7.7299 H   0  0  0  0  0  0  0  0  0  0  0  0
    6.8527  -11.4806    5.4413 H   0  0  0  0  0  0  0  0  0  0  0  0
    7.8106   -9.7312    4.1775 H   0  0  0  0  0  0  0  0  0  0  0  0
    6.3312   -8.8029    4.0777 H   0  0  0  0  0  0  0  0  0  0  0  0
    7.1682  -11.0450    2.3579 H   0  0  0  0  0  0  0  0  0  0  0  0
    5.9283   -9.8230    2.0790 H   0  0  0  0  0  0  0  0  0  0  0  0
    5.6424  -12.5743    3.0926 H   0  0  0  0  0  0  0  0  0  0  0  0
    4.3625  -11.4915    2.5419 H   0  0  0  0  0  0  0  0  0  0  0  0
    4.5886  -12.2020    5.1724 H   0  0  0  0  0  0  0  0  0  0  0  0
    4.0172  -10.6085    4.6911 H   0  0  0  0  0  0  0  0  0  0  0  0
    4.5172   -7.0992    9.5615 H   0  0  0  0  0  0  0  0  0  0  0  0
    6.1754   -4.3813    0.4606 H   0  0  0  0  0  0  0  0  0  0  0  0
    7.5267   -5.4932    0.5264 H   0  0  0  0  0  0  0  0  0  0  0  0
    7.2970   -2.8171    2.0019 H   0  0  0  0  0  0  0  0  0  0  0  0
    8.2794   -3.1337    0.5632 H   0  0  0  0  0  0  0  0  0  0  0  0
  1  2  1  0  0  0  0
  1 30  1  0  0  0  0
  1 31  1  0  0  0  0
  1 32  1  0  0  0  0
  2  3  1  0  0  0  0
  3  4  1  0  0  0  0
  3 29  1  0  0  0  0
  3 33  1  0  0  0  0
  4  5  1  0  0  0  0
  4 34  1  0  0  0  0
  4 35  1  0  0  0  0
  5  6  1  0  0  0  0
  5 36  1  0  0  0  0
  5 37  1  0  0  0  0
  6  7  1  0  0  0  0
  6 28  1  0  0  0  0
  7  8  1  0  0  0  0
  7 27  2  0  0  0  0
  8  9  2  0  0  0  0
  9 10  1  0  0  0  0
  9 38  1  0  0  0  0
 10 11  2  0  0  0  0
 10 39  1  0  0  0  0
 11 12  1  0  0  0  0
 11 27  1  0  0  0  0
 12 13  1  0  0  0  0
 12 40  1  0  0  0  0
 13 14  1  0  0  0  0
 13 26  2  0  0  0  0
 14 15  2  0  0  0  0
 14 41  1  0  0  0  0
 15 16  1  0  0  0  0
 15 19  1  0  0  0  0
 16 17  1  0  0  0  0
 16 25  2  0  0  0  0
 17 18  2  0  0  0  0
 17 42  1  0  0  0  0
 18 19  1  0  0  0  0
 18 43  1  0  0  0  0
 19 20  1  0  0  0  0
 20 21  1  0  0  0  0
 20 24  1  0  0  0  0
 20 44  1  0  0  0  0
 21 22  1  0  0  0  0
 21 45  1  0  0  0  0
 21 46  1  0  0  0  0
 22 23  1  0  0  0  0
 22 47  1  0  0  0  0
 22 48  1  0  0  0  0
 23 24  1  0  0  0  0
 23 49  1  0  0  0  0
 23 50  1  0  0  0  0
 24 51  1  0  0  0  0
 24 52  1  0  0  0  0
 25 26  1  0  0  0  0
 25 53  1  0  0  0  0
 28 29  1  0  0  0  0
 28 54  1  0  0  0  0
 28 55  1  0  0  0  0
 29 56  1  0  0  0  0
 29 57  1  0  0  0  0
M  END
$$$$
