CHEMBL258000
 OpenBabel04072215363D

 57 62  0  0  0  0  0  0  0  0999 V2000
    1.2890    0.9207    0.0809 C   0  0  0  0  0  0  0  0  0  0  0  0
    2.6032    0.1517    0.1360 C   0  0  0  0  0  0  0  0  0  0  0  0
    3.0823   -0.3828    1.2191 N   0  0  0  0  0  0  0  0  0  0  0  0
    2.2551   -0.1434    2.3174 O   0  0  0  0  0  0  0  0  0  0  0  0
    2.7955   -0.7886    3.4715 C   0  0  0  0  0  0  0  0  0  0  0  0
    3.9040    0.0767    4.0547 C   0  0  0  0  0  0  0  0  0  0  0  0
    1.6417   -0.9533    4.4521 C   0  0  0  0  0  0  0  0  0  0  0  0
    3.3574   -0.0405   -1.1390 C   0  0  0  0  0  0  0  0  0  0  0  0
    2.7723    0.4067   -2.3261 C   0  0  0  0  0  0  0  0  0  0  0  0
    3.3467    0.1286   -3.5476 C   0  0  0  0  0  0  0  0  0  0  0  0
    4.5147   -0.6205   -3.5293 C   0  0  0  0  0  0  0  0  0  0  0  0
    5.1044   -1.2129   -4.6096 N   0  0  0  0  0  0  0  0  0  0  0  0
    6.1799   -1.9198   -4.2001 C   0  0  0  0  0  0  0  0  0  0  0  0
    6.8854   -2.9288   -4.7887 C   0  0  0  0  0  0  0  0  0  0  0  0
    8.2690   -2.7109   -4.7140 C   0  0  0  0  0  0  0  0  0  0  0  0
    8.5792   -2.6269   -3.3296 C   0  0  0  0  0  0  0  0  0  0  0  0
    7.5485   -2.1783   -2.3487 C   0  0  0  0  0  0  0  0  0  0  0  0
    6.4006   -1.5708   -2.9093 C   0  0  0  0  0  0  0  0  0  0  0  0
    5.2388   -0.9816   -2.3749 C   0  0  0  0  0  0  0  0  0  0  0  0
    4.6183   -0.7050   -1.1396 C   0  0  0  0  0  0  0  0  0  0  0  0
    7.8122   -2.6393   -0.9909 C   0  0  0  0  0  0  0  0  0  0  0  0
    9.1002   -3.2712   -1.2182 N   0  0  0  0  0  0  0  0  0  0  0  0
    9.5982   -3.3025   -2.5454 C   0  0  0  0  0  0  0  0  0  0  0  0
   10.6095   -3.8977   -2.8367 O   0  0  0  0  0  0  0  0  0  0  0  0
    8.8265   -2.7652   -6.1113 C   0  0  0  0  0  0  0  0  0  0  0  0
    9.9996   -2.5808   -6.8417 C   0  0  0  0  0  0  0  0  0  0  0  0
    9.6713   -2.7554   -8.1934 N   0  0  0  0  0  0  0  0  0  0  0  0
   10.4349   -3.1203   -9.3704 C   0  0  0  0  0  0  0  0  0  0  0  0
    8.3639   -2.7196   -8.4248 N   0  0  0  0  0  0  0  0  0  0  0  0
    7.8670   -2.8805   -7.2183 C   0  0  0  0  0  0  0  0  0  0  0  0
    6.4298   -3.2100   -7.0877 C   0  0  0  0  0  0  0  0  0  0  0  0
    6.3138   -3.8988   -5.7600 C   0  0  0  0  0  0  0  0  0  0  0  0
    0.7784    0.9775    1.0422 H   0  0  0  0  0  0  0  0  0  0  0  0
    0.5971    0.4376   -0.6179 H   0  0  0  0  0  0  0  0  0  0  0  0
    1.4960    1.9412   -0.2479 H   0  0  0  0  0  0  0  0  0  0  0  0
    3.1777   -1.7805    3.2001 H   0  0  0  0  0  0  0  0  0  0  0  0
    3.5491    1.0905    4.2558 H   0  0  0  0  0  0  0  0  0  0  0  0
    4.7395    0.1709    3.3496 H   0  0  0  0  0  0  0  0  0  0  0  0
    4.2947   -0.3519    4.9855 H   0  0  0  0  0  0  0  0  0  0  0  0
    1.2101    0.0132    4.7188 H   0  0  0  0  0  0  0  0  0  0  0  0
    1.9704   -1.4614    5.3728 H   0  0  0  0  0  0  0  0  0  0  0  0
    0.8390   -1.5447    3.9984 H   0  0  0  0  0  0  0  0  0  0  0  0
    1.8269    0.9371   -2.3509 H   0  0  0  0  0  0  0  0  0  0  0  0
    2.8644    0.4121   -4.4770 H   0  0  0  0  0  0  0  0  0  0  0  0
    4.7512   -1.1733   -5.5552 H   0  0  0  0  0  0  0  0  0  0  0  0
    5.0577   -1.0542   -0.2104 H   0  0  0  0  0  0  0  0  0  0  0  0
    7.0824   -3.4049   -0.6968 H   0  0  0  0  0  0  0  0  0  0  0  0
    7.8833   -1.8545   -0.2374 H   0  0  0  0  0  0  0  0  0  0  0  0
    9.5223   -3.8873   -0.5296 H   0  0  0  0  0  0  0  0  0  0  0  0
   11.0265   -2.3666   -6.5790 H   0  0  0  0  0  0  0  0  0  0  0  0
   10.6623   -2.2243   -9.9489 H   0  0  0  0  0  0  0  0  0  0  0  0
    9.7892   -3.7613   -9.9945 H   0  0  0  0  0  0  0  0  0  0  0  0
   11.3114   -3.6977   -9.0931 H   0  0  0  0  0  0  0  0  0  0  0  0
    6.0869   -3.8631   -7.8884 H   0  0  0  0  0  0  0  0  0  0  0  0
    5.8386   -2.2876   -7.1194 H   0  0  0  0  0  0  0  0  0  0  0  0
    6.9283   -4.8138   -5.7206 H   0  0  0  0  0  0  0  0  0  0  0  0
    5.3012   -4.1820   -5.4811 H   0  0  0  0  0  0  0  0  0  0  0  0
  1  2  1  0  0  0  0
  1 33  1  0  0  0  0
  1 34  1  0  0  0  0
  1 35  1  0  0  0  0
  2  3  2  0  0  0  0
  2  8  1  0  0  0  0
  3  4  1  0  0  0  0
  4  5  1  0  0  0  0
  5  6  1  0  0  0  0
  5  7  1  0  0  0  0
  5 36  1  0  0  0  0
  6 37  1  0  0  0  0
  6 38  1  0  0  0  0
  6 39  1  0  0  0  0
  7 40  1  0  0  0  0
  7 41  1  0  0  0  0
  7 42  1  0  0  0  0
  8  9  1  0  0  0  0
  8 20  2  0  0  0  0
  9 10  2  0  0  0  0
  9 43  1  0  0  0  0
 10 11  1  0  0  0  0
 10 44  1  0  0  0  0
 11 12  1  0  0  0  0
 11 19  2  0  0  0  0
 12 13  1  0  0  0  0
 12 45  1  0  0  0  0
 13 14  1  0  0  0  0
 13 18  2  0  0  0  0
 14 15  2  0  0  0  0
 14 32  1  0  0  0  0
 15 16  1  0  0  0  0
 15 25  1  0  0  0  0
 16 17  2  0  0  0  0
 16 23  1  0  0  0  0
 17 18  1  0  0  0  0
 17 21  1  0  0  0  0
 18 19  1  0  0  0  0
 19 20  1  0  0  0  0
 20 46  1  0  0  0  0
 21 22  1  0  0  0  0
 21 47  1  0  0  0  0
 21 48  1  0  0  0  0
 22 23  1  0  0  0  0
 22 49  1  0  0  0  0
 23 24  2  0  0  0  0
 25 26  2  0  0  0  0
 25 30  1  0  0  0  0
 26 27  1  0  0  0  0
 26 50  1  0  0  0  0
 27 28  1  0  0  0  0
 27 29  1  0  0  0  0
 28 51  1  0  0  0  0
 28 52  1  0  0  0  0
 28 53  1  0  0  0  0
 29 30  2  0  0  0  0
 30 31  1  0  0  0  0
 31 32  1  0  0  0  0
 31 54  1  0  0  0  0
 31 55  1  0  0  0  0
 32 56  1  0  0  0  0
 32 57  1  0  0  0  0
M  END
$$$$
