CHEMBL1084634
 OpenBabel04072215363D

 53 56  0  0  0  0  0  0  0  0999 V2000
    2.0751    1.5146    1.2831 C   0  0  0  0  0  0  0  0  0  0  0  0
    2.3761    0.2227    0.5421 C   0  0  0  0  0  0  0  0  0  0  0  0
    3.0589   -0.7498    1.3795 N   0  0  0  0  0  0  0  0  0  0  0  0
    4.4338   -0.7070    1.4709 C   0  0  0  0  0  0  0  0  0  0  0  0
    5.0816    0.1161    0.8378 O   0  0  0  0  0  0  0  0  0  0  0  0
    4.9387   -1.6951    2.2958 N   0  0  0  0  0  0  0  0  0  0  0  0
    6.3227   -1.8680    2.5927 C   0  0  0  0  0  0  0  0  0  0  0  0
    7.1964   -0.7908    2.4175 C   0  0  0  0  0  0  0  0  0  0  0  0
    8.5626   -0.9296    2.5972 C   0  0  0  0  0  0  0  0  0  0  0  0
    9.0935   -2.1287    3.0620 C   0  0  0  0  0  0  0  0  0  0  0  0
   10.4560   -2.2833    3.2730 O   0  0  0  0  0  0  0  0  0  0  0  0
   11.1967   -1.1835    3.6988 C   0  0  0  0  0  0  0  0  0  0  0  0
   10.5593   -0.2752    4.4902 N   0  0  0  0  0  0  0  0  0  0  0  0
   11.2500    0.8068    4.8886 C   0  0  0  0  0  0  0  0  0  0  0  0
   12.5766    1.0092    4.5791 C   0  0  0  0  0  0  0  0  0  0  0  0
   13.2256    0.0437    3.8104 C   0  0  0  0  0  0  0  0  0  0  0  0
   12.5472   -1.0949    3.3294 C   0  0  0  0  0  0  0  0  0  0  0  0
   13.2695   -2.0852    2.4975 C   0  0  0  0  0  0  0  0  0  0  0  0
   12.6881   -2.7962    1.4680 C   0  0  0  0  0  0  0  0  0  0  0  0
   13.5029   -3.6785    0.8006 C   0  0  0  0  0  0  0  0  0  0  0  0
   14.7963   -3.8554    1.0960 N   0  0  0  0  0  0  0  0  0  0  0  0
   15.3020   -3.1210    2.0892 C   0  0  0  0  0  0  0  0  0  0  0  0
   16.6108   -3.2609    2.4625 N   0  0  0  0  0  0  0  0  0  0  0  0
   17.5434   -4.0797    1.7409 C   0  0  0  0  0  0  0  0  0  0  0  0
   14.5862   -2.2340    2.7915 N   0  0  0  0  0  0  0  0  0  0  0  0
    8.2504   -3.2461    3.2623 C   0  0  0  0  0  0  0  0  0  0  0  0
    8.7824   -4.4919    3.6637 C   0  0  0  0  0  0  0  0  0  0  0  0
    7.9733   -5.6084    3.8586 C   0  0  0  0  0  0  0  0  0  0  0  0
    6.6053   -5.5000    3.6697 C   0  0  0  0  0  0  0  0  0  0  0  0
    6.0488   -4.2786    3.2724 C   0  0  0  0  0  0  0  0  0  0  0  0
    6.8418   -3.1236    3.0429 C   0  0  0  0  0  0  0  0  0  0  0  0
    1.6059    2.2378    0.6075 H   0  0  0  0  0  0  0  0  0  0  0  0
    2.9857    1.9696    1.6876 H   0  0  0  0  0  0  0  0  0  0  0  0
    1.3919    1.3333    2.1182 H   0  0  0  0  0  0  0  0  0  0  0  0
    2.9956    0.4438   -0.3354 H   0  0  0  0  0  0  0  0  0  0  0  0
    1.4505   -0.2393    0.1882 H   0  0  0  0  0  0  0  0  0  0  0  0
    2.5481   -1.1498    2.1520 H   0  0  0  0  0  0  0  0  0  0  0  0
    4.3221   -2.4728    2.4557 H   0  0  0  0  0  0  0  0  0  0  0  0
    6.8438    0.1977    2.1401 H   0  0  0  0  0  0  0  0  0  0  0  0
    9.1915   -0.0680    2.3919 H   0  0  0  0  0  0  0  0  0  0  0  0
   10.6868    1.5268    5.4751 H   0  0  0  0  0  0  0  0  0  0  0  0
   13.0988    1.8927    4.9274 H   0  0  0  0  0  0  0  0  0  0  0  0
   14.2786    0.1871    3.5736 H   0  0  0  0  0  0  0  0  0  0  0  0
   11.6529   -2.6820    1.1748 H   0  0  0  0  0  0  0  0  0  0  0  0
   13.1210   -4.2856   -0.0135 H   0  0  0  0  0  0  0  0  0  0  0  0
   16.9323   -2.5573    3.1089 H   0  0  0  0  0  0  0  0  0  0  0  0
   17.0875   -4.6952    0.9588 H   0  0  0  0  0  0  0  0  0  0  0  0
   18.0374   -4.7587    2.4429 H   0  0  0  0  0  0  0  0  0  0  0  0
   18.3153   -3.4590    1.2752 H   0  0  0  0  0  0  0  0  0  0  0  0
    9.8538   -4.6061    3.8233 H   0  0  0  0  0  0  0  0  0  0  0  0
    8.4142   -6.5551    4.1567 H   0  0  0  0  0  0  0  0  0  0  0  0
    5.9659   -6.3653    3.8270 H   0  0  0  0  0  0  0  0  0  0  0  0
    4.9710   -4.2546    3.1444 H   0  0  0  0  0  0  0  0  0  0  0  0
  1  2  1  0  0  0  0
  1 32  1  0  0  0  0
  1 33  1  0  0  0  0
  1 34  1  0  0  0  0
  2  3  1  0  0  0  0
  2 35  1  0  0  0  0
  2 36  1  0  0  0  0
  3  4  1  0  0  0  0
  3 37  1  0  0  0  0
  4  5  2  0  0  0  0
  4  6  1  0  0  0  0
  6  7  1  0  0  0  0
  6 38  1  0  0  0  0
  7  8  1  0  0  0  0
  7 31  2  0  0  0  0
  8  9  2  0  0  0  0
  8 39  1  0  0  0  0
  9 10  1  0  0  0  0
  9 40  1  0  0  0  0
 10 11  1  0  0  0  0
 10 26  2  0  0  0  0
 11 12  1  0  0  0  0
 12 13  1  0  0  0  0
 12 17  2  0  0  0  0
 13 14  2  0  0  0  0
 14 15  1  0  0  0  0
 14 41  1  0  0  0  0
 15 16  2  0  0  0  0
 15 42  1  0  0  0  0
 16 17  1  0  0  0  0
 16 43  1  0  0  0  0
 17 18  1  0  0  0  0
 18 19  1  0  0  0  0
 18 25  2  0  0  0  0
 19 20  2  0  0  0  0
 19 44  1  0  0  0  0
 20 21  1  0  0  0  0
 20 45  1  0  0  0  0
 21 22  2  0  0  0  0
 22 23  1  0  0  0  0
 22 25  1  0  0  0  0
 23 24  1  0  0  0  0
 23 46  1  0  0  0  0
 24 47  1  0  0  0  0
 24 48  1  0  0  0  0
 24 49  1  0  0  0  0
 26 27  1  0  0  0  0
 26 31  1  0  0  0  0
 27 28  2  0  0  0  0
 27 50  1  0  0  0  0
 28 29  1  0  0  0  0
 28 51  1  0  0  0  0
 29 30  2  0  0  0  0
 29 52  1  0  0  0  0
 30 31  1  0  0  0  0
 30 53  1  0  0  0  0
M  END
$$$$
