CHEMBL3397935
 OpenBabel04072215363D

 56 59  0  0  0  0  0  0  0  0999 V2000
    1.0689   -0.5737    0.7447 O   0  0  0  0  0  0  0  0  0  0  0  0
    2.2004   -0.2284    0.4265 C   0  0  0  0  0  0  0  0  0  0  0  0
    2.8127    0.9759    0.7377 N   0  0  0  0  0  0  0  0  0  0  0  0
    2.2595    2.0118    1.5171 C   0  0  0  0  0  0  0  0  0  0  0  0
    1.1246    1.8545    2.3171 C   0  0  0  0  0  0  0  0  0  0  0  0
    0.5687    2.9480    2.9893 C   0  0  0  0  0  0  0  0  0  0  0  0
    1.1365    4.2129    2.8656 C   0  0  0  0  0  0  0  0  0  0  0  0
    0.4397    5.2286    3.4711 O   0  0  0  0  0  0  0  0  0  0  0  0
    0.6505    6.5165    2.8791 C   0  0  0  0  0  0  0  0  0  0  0  0
   -0.6103    7.3855    3.0205 C   0  0  0  0  0  0  0  0  0  0  0  0
   -0.4451    8.7127    2.3949 N   0  0  0  0  0  0  0  0  0  0  0  0
   -1.6311    9.5613    2.5799 C   0  0  0  0  0  0  0  0  0  0  0  0
   -2.3940    9.4670    1.2738 C   0  0  0  0  0  0  0  0  0  0  0  0
   -1.2776    9.4452    0.2544 C   0  0  0  0  0  0  0  0  0  0  0  0
   -0.1984    8.6261    0.9402 C   0  0  0  0  0  0  0  0  0  0  0  0
    2.3245    4.3435    2.1394 C   0  0  0  0  0  0  0  0  0  0  0  0
    2.9550    5.5235    2.0379 F   0  0  0  0  0  0  0  0  0  0  0  0
    2.8836    3.2583    1.4680 C   0  0  0  0  0  0  0  0  0  0  0  0
    2.9967   -1.1351   -0.4345 C   0  0  0  0  0  0  0  0  0  0  0  0
    2.3307   -1.9164   -1.3801 C   0  0  0  0  0  0  0  0  0  0  0  0
    3.0557   -2.7852   -2.1884 C   0  0  0  0  0  0  0  0  0  0  0  0
    4.4463   -2.8673   -2.0563 C   0  0  0  0  0  0  0  0  0  0  0  0
    5.1488   -2.0750   -1.1280 C   0  0  0  0  0  0  0  0  0  0  0  0
    6.6301   -2.0649   -1.0584 C   0  0  0  0  0  0  0  0  0  0  0  0
    7.4135   -2.2535   -2.2125 C   0  0  0  0  0  0  0  0  0  0  0  0
    8.8064   -2.1279   -2.1815 C   0  0  0  0  0  0  0  0  0  0  0  0
    9.4512   -1.7895   -0.9959 C   0  0  0  0  0  0  0  0  0  0  0  0
    8.6971   -1.6146    0.1549 C   0  0  0  0  0  0  0  0  0  0  0  0
    9.2756   -1.2476    1.3350 O   0  0  0  0  0  0  0  0  0  0  0  0
    7.3134   -1.7757    0.1375 C   0  0  0  0  0  0  0  0  0  0  0  0
    4.3885   -1.2248   -0.3042 C   0  0  0  0  0  0  0  0  0  0  0  0
    3.6670    1.2003    0.2422 H   0  0  0  0  0  0  0  0  0  0  0  0
    0.6416    0.8886    2.4310 H   0  0  0  0  0  0  0  0  0  0  0  0
   -0.3312    2.8077    3.5827 H   0  0  0  0  0  0  0  0  0  0  0  0
    0.8663    6.4042    1.8114 H   0  0  0  0  0  0  0  0  0  0  0  0
    1.4977    6.9986    3.3749 H   0  0  0  0  0  0  0  0  0  0  0  0
   -0.8187    7.5046    4.0919 H   0  0  0  0  0  0  0  0  0  0  0  0
   -1.4762    6.8536    2.6030 H   0  0  0  0  0  0  0  0  0  0  0  0
   -1.2879   10.5937    2.7260 H   0  0  0  0  0  0  0  0  0  0  0  0
   -2.2431    9.2986    3.4480 H   0  0  0  0  0  0  0  0  0  0  0  0
   -3.0771   10.3055    1.1222 H   0  0  0  0  0  0  0  0  0  0  0  0
   -2.9684    8.5334    1.2297 H   0  0  0  0  0  0  0  0  0  0  0  0
   -0.9155   10.4618    0.0606 H   0  0  0  0  0  0  0  0  0  0  0  0
   -1.5906    9.0025   -0.6964 H   0  0  0  0  0  0  0  0  0  0  0  0
    0.8002    9.0077    0.7038 H   0  0  0  0  0  0  0  0  0  0  0  0
   -0.2623    7.6016    0.5559 H   0  0  0  0  0  0  0  0  0  0  0  0
    3.7831    3.4262    0.8840 H   0  0  0  0  0  0  0  0  0  0  0  0
    1.2503   -1.8445   -1.4879 H   0  0  0  0  0  0  0  0  0  0  0  0
    2.5407   -3.3959   -2.9261 H   0  0  0  0  0  0  0  0  0  0  0  0
    4.9767   -3.5671   -2.6991 H   0  0  0  0  0  0  0  0  0  0  0  0
    6.9444   -2.4676   -3.1708 H   0  0  0  0  0  0  0  0  0  0  0  0
    9.3799   -2.2702   -3.0938 H   0  0  0  0  0  0  0  0  0  0  0  0
   10.5300   -1.6702   -0.9897 H   0  0  0  0  0  0  0  0  0  0  0  0
   10.2057   -1.0242    1.1657 H   0  0  0  0  0  0  0  0  0  0  0  0
    6.7768   -1.6501    1.0738 H   0  0  0  0  0  0  0  0  0  0  0  0
    4.8874   -0.6204    0.4488 H   0  0  0  0  0  0  0  0  0  0  0  0
  1  2  2  0  0  0  0
  2  3  1  0  0  0  0
  2 19  1  0  0  0  0
  3  4  1  0  0  0  0
  3 32  1  0  0  0  0
  4  5  1  0  0  0  0
  4 18  2  0  0  0  0
  5  6  2  0  0  0  0
  5 33  1  0  0  0  0
  6  7  1  0  0  0  0
  6 34  1  0  0  0  0
  7  8  1  0  0  0  0
  7 16  2  0  0  0  0
  8  9  1  0  0  0  0
  9 10  1  0  0  0  0
  9 35  1  0  0  0  0
  9 36  1  0  0  0  0
 10 11  1  0  0  0  0
 10 37  1  0  0  0  0
 10 38  1  0  0  0  0
 11 12  1  0  0  0  0
 11 15  1  0  0  0  0
 12 13  1  0  0  0  0
 12 39  1  0  0  0  0
 12 40  1  0  0  0  0
 13 14  1  0  0  0  0
 13 41  1  0  0  0  0
 13 42  1  0  0  0  0
 14 15  1  0  0  0  0
 14 43  1  0  0  0  0
 14 44  1  0  0  0  0
 15 45  1  0  0  0  0
 15 46  1  0  0  0  0
 16 17  1  0  0  0  0
 16 18  1  0  0  0  0
 18 47  1  0  0  0  0
 19 20  1  0  0  0  0
 19 31  2  0  0  0  0
 20 21  2  0  0  0  0
 20 48  1  0  0  0  0
 21 22  1  0  0  0  0
 21 49  1  0  0  0  0
 22 23  2  0  0  0  0
 22 50  1  0  0  0  0
 23 24  1  0  0  0  0
 23 31  1  0  0  0  0
 24 25  1  0  0  0  0
 24 30  2  0  0  0  0
 25 26  2  0  0  0  0
 25 51  1  0  0  0  0
 26 27  1  0  0  0  0
 26 52  1  0  0  0  0
 27 28  2  0  0  0  0
 27 53  1  0  0  0  0
 28 29  1  0  0  0  0
 28 30  1  0  0  0  0
 29 54  1  0  0  0  0
 30 55  1  0  0  0  0
 31 56  1  0  0  0  0
M  END
$$$$
