CHEMBL3586065
 OpenBabel04072215363D

 53 55  0  0  0  0  0  0  0  0999 V2000
    0.8653   -0.0304    0.2293 C   0  0  0  0  0  0  0  0  0  0  0  0
    2.4045   -0.0597    0.2564 C   0  0  0  0  0  0  0  0  0  0  0  0
    2.9349    0.0943   -1.1757 C   0  0  0  0  0  0  0  0  0  0  0  0
    2.8899    1.1118    1.1244 C   0  0  0  0  0  0  0  0  0  0  0  0
    2.8746   -1.4262    0.7996 C   0  0  0  0  0  0  0  0  0  0  0  0
    2.0894   -2.3581    0.9672 O   0  0  0  0  0  0  0  0  0  0  0  0
    4.2317   -1.5154    1.0364 N   0  0  0  0  0  0  0  0  0  0  0  0
    4.8300   -2.6647    1.5512 C   0  0  0  0  0  0  0  0  0  0  0  0
    4.5622   -3.9251    1.0427 C   0  0  0  0  0  0  0  0  0  0  0  0
    5.2075   -5.0204    1.6153 C   0  0  0  0  0  0  0  0  0  0  0  0
    6.0856   -4.8505    2.6969 C   0  0  0  0  0  0  0  0  0  0  0  0
    6.8155   -5.9814    3.2993 C   0  0  0  0  0  0  0  0  0  0  0  0
    7.2888   -7.0111    2.4842 C   0  0  0  0  0  0  0  0  0  0  0  0
    8.0188   -8.0788    3.0063 C   0  0  0  0  0  0  0  0  0  0  0  0
    8.3191   -8.1703    4.3649 C   0  0  0  0  0  0  0  0  0  0  0  0
    9.0800   -9.2343    4.9200 N   0  0  0  0  0  0  0  0  0  0  0  0
    9.5342  -10.3284    4.2046 C   0  0  0  0  0  0  0  0  0  0  0  0
    9.2888  -10.5265    3.0210 O   0  0  0  0  0  0  0  0  0  0  0  0
   10.2890  -11.2159    4.9619 N   0  0  0  0  0  0  0  0  0  0  0  0
   10.8894  -12.3762    4.3932 C   0  0  0  0  0  0  0  0  0  0  0  0
   11.2175  -12.4615    3.0324 C   0  0  0  0  0  0  0  0  0  0  0  0
   11.6705  -13.6552    2.4693 C   0  0  0  0  0  0  0  0  0  0  0  0
   11.8526  -14.7741    3.2758 C   0  0  0  0  0  0  0  0  0  0  0  0
   12.3652  -16.2348    2.5129 Cl  0  0  0  0  0  0  0  0  0  0  0  0
   11.6120  -14.6761    4.6518 C   0  0  0  0  0  0  0  0  0  0  0  0
   11.8520  -16.0177    5.7173 Cl  0  0  0  0  0  0  0  0  0  0  0  0
   11.1387  -13.4771    5.2123 C   0  0  0  0  0  0  0  0  0  0  0  0
    7.8528   -7.1501    5.1997 C   0  0  0  0  0  0  0  0  0  0  0  0
    7.1065   -6.0757    4.6721 C   0  0  0  0  0  0  0  0  0  0  0  0
    6.2787   -3.5339    3.1129 C   0  0  0  0  0  0  0  0  0  0  0  0
    5.7095   -2.4417    2.5443 N   0  0  0  0  0  0  0  0  0  0  0  0
    0.4913    0.9088   -0.1930 H   0  0  0  0  0  0  0  0  0  0  0  0
    0.4535   -0.1299    1.2409 H   0  0  0  0  0  0  0  0  0  0  0  0
    0.4577   -0.8512   -0.3718 H   0  0  0  0  0  0  0  0  0  0  0  0
    2.5537    1.0078   -1.6448 H   0  0  0  0  0  0  0  0  0  0  0  0
    2.6324   -0.7562   -1.7979 H   0  0  0  0  0  0  0  0  0  0  0  0
    4.0294    0.1389   -1.1975 H   0  0  0  0  0  0  0  0  0  0  0  0
    2.4805    2.0627    0.7638 H   0  0  0  0  0  0  0  0  0  0  0  0
    3.9799    1.2147    1.1140 H   0  0  0  0  0  0  0  0  0  0  0  0
    2.5807    0.9849    2.1679 H   0  0  0  0  0  0  0  0  0  0  0  0
    4.7146   -0.6803    1.3305 H   0  0  0  0  0  0  0  0  0  0  0  0
    3.8929   -4.0650    0.2001 H   0  0  0  0  0  0  0  0  0  0  0  0
    5.0106   -6.0077    1.2021 H   0  0  0  0  0  0  0  0  0  0  0  0
    7.1222   -6.9989    1.4087 H   0  0  0  0  0  0  0  0  0  0  0  0
    8.3453   -8.8130    2.2803 H   0  0  0  0  0  0  0  0  0  0  0  0
    9.3061   -9.1751    5.9049 H   0  0  0  0  0  0  0  0  0  0  0  0
   10.1202  -11.2226    5.9565 H   0  0  0  0  0  0  0  0  0  0  0  0
   11.1053  -11.6099    2.3629 H   0  0  0  0  0  0  0  0  0  0  0  0
   11.8559  -13.6987    1.3984 H   0  0  0  0  0  0  0  0  0  0  0  0
   10.9317  -13.4361    6.2762 H   0  0  0  0  0  0  0  0  0  0  0  0
    8.0503   -7.1672    6.2686 H   0  0  0  0  0  0  0  0  0  0  0  0
    6.7449   -5.3122    5.3614 H   0  0  0  0  0  0  0  0  0  0  0  0
    6.9424   -3.2988    3.9403 H   0  0  0  0  0  0  0  0  0  0  0  0
  1  2  1  0  0  0  0
  1 32  1  0  0  0  0
  1 33  1  0  0  0  0
  1 34  1  0  0  0  0
  2  3  1  0  0  0  0
  2  4  1  0  0  0  0
  2  5  1  0  0  0  0
  3 35  1  0  0  0  0
  3 36  1  0  0  0  0
  3 37  1  0  0  0  0
  4 38  1  0  0  0  0
  4 39  1  0  0  0  0
  4 40  1  0  0  0  0
  5  6  2  0  0  0  0
  5  7  1  0  0  0  0
  7  8  1  0  0  0  0
  7 41  1  0  0  0  0
  8  9  1  0  0  0  0
  8 31  2  0  0  0  0
  9 10  2  0  0  0  0
  9 42  1  0  0  0  0
 10 11  1  0  0  0  0
 10 43  1  0  0  0  0
 11 12  1  0  0  0  0
 11 30  2  0  0  0  0
 12 13  1  0  0  0  0
 12 29  2  0  0  0  0
 13 14  2  0  0  0  0
 13 44  1  0  0  0  0
 14 15  1  0  0  0  0
 14 45  1  0  0  0  0
 15 16  1  0  0  0  0
 15 28  2  0  0  0  0
 16 17  1  0  0  0  0
 16 46  1  0  0  0  0
 17 18  2  0  0  0  0
 17 19  1  0  0  0  0
 19 20  1  0  0  0  0
 19 47  1  0  0  0  0
 20 21  1  0  0  0  0
 20 27  2  0  0  0  0
 21 22  2  0  0  0  0
 21 48  1  0  0  0  0
 22 23  1  0  0  0  0
 22 49  1  0  0  0  0
 23 24  1  0  0  0  0
 23 25  2  0  0  0  0
 25 26  1  0  0  0  0
 25 27  1  0  0  0  0
 27 50  1  0  0  0  0
 28 29  1  0  0  0  0
 28 51  1  0  0  0  0
 29 52  1  0  0  0  0
 30 31  1  0  0  0  0
 30 53  1  0  0  0  0
M  END
$$$$
