CHEMBL3633773
 OpenBabel04072215373D

 53 55  0  0  0  0  0  0  0  0999 V2000
    3.7601    1.0971   -0.2349 C   0  0  0  0  0  0  0  0  0  0  0  0
    2.7857    0.0532   -0.1600 O   0  0  0  0  0  0  0  0  0  0  0  0
    3.2235   -1.1418    0.3468 C   0  0  0  0  0  0  0  0  0  0  0  0
    4.2470   -1.1852    1.3046 C   0  0  0  0  0  0  0  0  0  0  0  0
    4.8018   -2.3734    1.7393 C   0  0  0  0  0  0  0  0  0  0  0  0
    5.8412   -2.3102    2.5749 N   0  0  0  0  0  0  0  0  0  0  0  0
    6.3924   -3.4723    2.9281 C   0  0  0  0  0  0  0  0  0  0  0  0
    6.0018   -4.6781    2.5145 N   0  0  0  0  0  0  0  0  0  0  0  0
    4.9469   -4.7280    1.6761 C   0  0  0  0  0  0  0  0  0  0  0  0
    4.5481   -5.9934    1.1648 N   0  0  0  0  0  0  0  0  0  0  0  0
    4.9988   -7.2269    1.7009 C   0  0  0  0  0  0  0  0  0  0  0  0
    4.9566   -7.4340    3.0884 C   0  0  0  0  0  0  0  0  0  0  0  0
    5.4526   -8.6074    3.6463 C   0  0  0  0  0  0  0  0  0  0  0  0
    5.4410   -8.8062    5.3545 Cl  0  0  0  0  0  0  0  0  0  0  0  0
    5.9693   -9.6102    2.8304 C   0  0  0  0  0  0  0  0  0  0  0  0
    5.9761   -9.4425    1.4436 C   0  0  0  0  0  0  0  0  0  0  0  0
    5.4877   -8.2593    0.8817 C   0  0  0  0  0  0  0  0  0  0  0  0
    5.5340   -8.0776   -0.8370 Cl  0  0  0  0  0  0  0  0  0  0  0  0
    4.2721   -3.5729    1.2586 C   0  0  0  0  0  0  0  0  0  0  0  0
    3.1354   -3.5478    0.4149 C   0  0  0  0  0  0  0  0  0  0  0  0
    2.6246   -2.3413   -0.0672 C   0  0  0  0  0  0  0  0  0  0  0  0
    1.5506   -2.4962   -0.9122 O   0  0  0  0  0  0  0  0  0  0  0  0
    1.5335   -1.6020   -2.0218 C   0  0  0  0  0  0  0  0  0  0  0  0
    0.5199   -2.0417   -3.0809 C   0  0  0  0  0  0  0  0  0  0  0  0
    0.5513   -1.0255   -4.2329 C   0  0  0  0  0  0  0  0  0  0  0  0
   -0.4663   -1.3084   -5.3312 C   0  0  0  0  0  0  0  0  0  0  0  0
   -0.3848   -0.2436   -6.4307 C   0  0  0  0  0  0  0  0  0  0  0  0
   -1.4164   -0.4806   -7.5160 C   0  0  0  0  0  0  0  0  0  0  0  0
   -2.2178   -1.4078   -7.5196 O   0  0  0  0  0  0  0  0  0  0  0  0
   -1.3915    0.4585   -8.5207 N   0  0  0  0  0  0  0  0  0  0  0  0
   -2.2763    0.1944   -9.5952 O   0  0  0  0  0  0  0  0  0  0  0  0
    3.5915    1.6542   -1.1609 H   0  0  0  0  0  0  0  0  0  0  0  0
    4.7952    0.7361   -0.2710 H   0  0  0  0  0  0  0  0  0  0  0  0
    3.6264    1.7784    0.6106 H   0  0  0  0  0  0  0  0  0  0  0  0
    4.6573   -0.2683    1.7199 H   0  0  0  0  0  0  0  0  0  0  0  0
    7.2417   -3.4324    3.6009 H   0  0  0  0  0  0  0  0  0  0  0  0
    4.6392   -5.9815    0.1493 H   0  0  0  0  0  0  0  0  0  0  0  0
    4.5509   -6.6583    3.7335 H   0  0  0  0  0  0  0  0  0  0  0  0
    6.3706  -10.5196    3.2689 H   0  0  0  0  0  0  0  0  0  0  0  0
    6.3772  -10.2293    0.8103 H   0  0  0  0  0  0  0  0  0  0  0  0
    2.6594   -4.4777    0.1099 H   0  0  0  0  0  0  0  0  0  0  0  0
    2.5293   -1.5651   -2.4804 H   0  0  0  0  0  0  0  0  0  0  0  0
    1.2289   -0.6049   -1.6826 H   0  0  0  0  0  0  0  0  0  0  0  0
   -0.4820   -2.0979   -2.6385 H   0  0  0  0  0  0  0  0  0  0  0  0
    0.7523   -3.0513   -3.4411 H   0  0  0  0  0  0  0  0  0  0  0  0
    1.5584   -1.0140   -4.6644 H   0  0  0  0  0  0  0  0  0  0  0  0
    0.3649   -0.0259   -3.8237 H   0  0  0  0  0  0  0  0  0  0  0  0
   -1.4773   -1.3209   -4.9068 H   0  0  0  0  0  0  0  0  0  0  0  0
   -0.2870   -2.3000   -5.7629 H   0  0  0  0  0  0  0  0  0  0  0  0
    0.6116   -0.2484   -6.8880 H   0  0  0  0  0  0  0  0  0  0  0  0
   -0.5602    0.7517   -6.0049 H   0  0  0  0  0  0  0  0  0  0  0  0
   -0.5680    1.0068   -8.7434 H   0  0  0  0  0  0  0  0  0  0  0  0
   -2.7457   -0.6135   -9.2862 H   0  0  0  0  0  0  0  0  0  0  0  0
  1  2  1  0  0  0  0
  1 32  1  0  0  0  0
  1 33  1  0  0  0  0
  1 34  1  0  0  0  0
  2  3  1  0  0  0  0
  3  4  1  0  0  0  0
  3 21  2  0  0  0  0
  4  5  2  0  0  0  0
  4 35  1  0  0  0  0
  5  6  1  0  0  0  0
  5 19  1  0  0  0  0
  6  7  2  0  0  0  0
  7  8  1  0  0  0  0
  7 36  1  0  0  0  0
  8  9  2  0  0  0  0
  9 10  1  0  0  0  0
  9 19  1  0  0  0  0
 10 11  1  0  0  0  0
 10 37  1  0  0  0  0
 11 12  1  0  0  0  0
 11 17  2  0  0  0  0
 12 13  2  0  0  0  0
 12 38  1  0  0  0  0
 13 14  1  0  0  0  0
 13 15  1  0  0  0  0
 15 16  2  0  0  0  0
 15 39  1  0  0  0  0
 16 17  1  0  0  0  0
 16 40  1  0  0  0  0
 17 18  1  0  0  0  0
 19 20  2  0  0  0  0
 20 21  1  0  0  0  0
 20 41  1  0  0  0  0
 21 22  1  0  0  0  0
 22 23  1  0  0  0  0
 23 24  1  0  0  0  0
 23 42  1  0  0  0  0
 23 43  1  0  0  0  0
 24 25  1  0  0  0  0
 24 44  1  0  0  0  0
 24 45  1  0  0  0  0
 25 26  1  0  0  0  0
 25 46  1  0  0  0  0
 25 47  1  0  0  0  0
 26 27  1  0  0  0  0
 26 48  1  0  0  0  0
 26 49  1  0  0  0  0
 27 28  1  0  0  0  0
 27 50  1  0  0  0  0
 27 51  1  0  0  0  0
 28 29  2  0  0  0  0
 28 30  1  0  0  0  0
 30 31  1  0  0  0  0
 30 52  1  0  0  0  0
 31 53  1  0  0  0  0
M  END
$$$$
