CHEMBL4441332
 OpenBabel04072215383D

 33 36  0  0  0  0  0  0  0  0999 V2000
   -3.2874    4.2148   -1.8996 C   0  0  0  0  0  0  0  0  0  0  0  0
   -4.4240    3.5226   -1.4877 C   0  0  0  0  0  0  0  0  0  0  0  0
   -4.3061    2.2283   -0.9754 C   0  0  0  0  0  0  0  0  0  0  0  0
   -3.0545    1.6084   -0.8731 C   0  0  0  0  0  0  0  0  0  0  0  0
   -2.8887    0.3248   -0.3248 N   0  0  0  0  0  0  0  0  0  0  0  0
   -3.7990   -0.7313   -0.3788 C   0  0  0  0  0  0  0  0  0  0  0  0
   -3.8020   -1.5711    0.6590 N   0  0  0  0  0  0  0  0  0  0  0  0
   -4.6517   -2.6091    0.5862 C   0  0  0  0  0  0  0  0  0  0  0  0
   -5.4930   -2.8644   -0.4834 C   0  0  0  0  0  0  0  0  0  0  0  0
   -5.4253   -1.9510   -1.5117 C   0  0  0  0  0  0  0  0  0  0  0  0
   -4.5891   -0.8902   -1.4509 N   0  0  0  0  0  0  0  0  0  0  0  0
   -6.2297   -2.0539   -2.7362 C   0  0  0  0  0  0  0  0  0  0  0  0
   -6.1375   -1.0816   -3.7549 C   0  0  0  0  0  0  0  0  0  0  0  0
   -6.8825   -1.1863   -4.9258 C   0  0  0  0  0  0  0  0  0  0  0  0
   -7.7229   -2.2690   -5.0568 C   0  0  0  0  0  0  0  0  0  0  0  0
   -7.8495   -3.2226   -4.1145 N   0  0  0  0  0  0  0  0  0  0  0  0
   -7.1061   -3.1120   -2.9793 C   0  0  0  0  0  0  0  0  0  0  0  0
   -7.3492   -4.4868   -1.8859 S   0  0  0  0  0  0  0  0  0  0  0  0
   -6.3980   -4.0422   -0.4274 C   0  0  0  0  0  0  0  0  0  0  0  0
   -1.9182    2.3314   -1.2543 C   0  0  0  0  0  0  0  0  0  0  0  0
   -2.0334    3.6207   -1.7808 C   0  0  0  0  0  0  0  0  0  0  0  0
   -3.3796    5.2168   -2.3096 H   0  0  0  0  0  0  0  0  0  0  0  0
   -5.4036    3.9860   -1.5658 H   0  0  0  0  0  0  0  0  0  0  0  0
   -5.2055    1.7096   -0.6525 H   0  0  0  0  0  0  0  0  0  0  0  0
   -2.4900    0.3365    0.6054 H   0  0  0  0  0  0  0  0  0  0  0  0
   -4.6335   -3.2636    1.4557 H   0  0  0  0  0  0  0  0  0  0  0  0
   -5.4650   -0.2313   -3.6429 H   0  0  0  0  0  0  0  0  0  0  0  0
   -6.8010   -0.4438   -5.7110 H   0  0  0  0  0  0  0  0  0  0  0  0
   -8.3301   -2.4100   -5.9460 H   0  0  0  0  0  0  0  0  0  0  0  0
   -5.7998   -4.9270   -0.1797 H   0  0  0  0  0  0  0  0  0  0  0  0
   -7.1109   -3.8970    0.3926 H   0  0  0  0  0  0  0  0  0  0  0  0
   -0.9341    1.8762   -1.1728 H   0  0  0  0  0  0  0  0  0  0  0  0
   -1.1444    4.1560   -2.1024 H   0  0  0  0  0  0  0  0  0  0  0  0
  1  2  1  0  0  0  0
  1 21  2  0  0  0  0
  1 22  1  0  0  0  0
  2  3  2  0  0  0  0
  2 23  1  0  0  0  0
  3  4  1  0  0  0  0
  3 24  1  0  0  0  0
  4  5  1  0  0  0  0
  4 20  2  0  0  0  0
  5  6  1  0  0  0  0
  5 25  1  0  0  0  0
  6  7  1  0  0  0  0
  6 11  2  0  0  0  0
  7  8  2  0  0  0  0
  8  9  1  0  0  0  0
  8 26  1  0  0  0  0
  9 10  2  0  0  0  0
  9 19  1  0  0  0  0
 10 11  1  0  0  0  0
 10 12  1  0  0  0  0
 12 13  1  0  0  0  0
 12 17  2  0  0  0  0
 13 14  2  0  0  0  0
 13 27  1  0  0  0  0
 14 15  1  0  0  0  0
 14 28  1  0  0  0  0
 15 16  2  0  0  0  0
 15 29  1  0  0  0  0
 16 17  1  0  0  0  0
 17 18  1  0  0  0  0
 18 19  1  0  0  0  0
 19 30  1  0  0  0  0
 19 31  1  0  0  0  0
 20 21  1  0  0  0  0
 20 32  1  0  0  0  0
 21 33  1  0  0  0  0
M  END
$$$$
