CHEMBL509435
 OpenBabel04072215383D

 50 53  0  0  0  0  0  0  0  0999 V2000
    7.3524    1.1235    2.3251 C   0  0  0  0  0  0  0  0  0  0  0  0
    6.5811    1.7140    1.2898 O   0  0  0  0  0  0  0  0  0  0  0  0
    5.2341    1.8693    1.5144 C   0  0  0  0  0  0  0  0  0  0  0  0
    4.6922    1.9735    2.8061 C   0  0  0  0  0  0  0  0  0  0  0  0
    3.3316    2.2444    3.0010 C   0  0  0  0  0  0  0  0  0  0  0  0
    2.7718    2.3708    4.3587 C   0  0  0  0  0  0  0  0  0  0  0  0
    2.7012    3.4651    5.1582 C   0  0  0  0  0  0  0  0  0  0  0  0
    3.3883    4.7037    4.9863 C   0  0  0  0  0  0  0  0  0  0  0  0
    3.6633    5.2593    3.7548 C   0  0  0  0  0  0  0  0  0  0  0  0
    4.9406    5.7506    3.8535 N   0  0  0  0  0  0  0  0  0  0  0  0
    5.8261    5.8947    2.7230 C   0  0  0  0  0  0  0  0  0  0  0  0
    5.3120    5.8478    5.1766 C   0  0  0  0  0  0  0  0  0  0  0  0
    6.5232    6.2514    5.7672 C   0  0  0  0  0  0  0  0  0  0  0  0
    6.6049    6.2632    7.1618 C   0  0  0  0  0  0  0  0  0  0  0  0
    5.5123    5.9046    7.9415 C   0  0  0  0  0  0  0  0  0  0  0  0
    4.3424    5.4237    7.3431 C   0  0  0  0  0  0  0  0  0  0  0  0
    4.2444    5.3548    5.9329 C   0  0  0  0  0  0  0  0  0  0  0  0
    2.1137    2.9776    6.4353 C   0  0  0  0  0  0  0  0  0  0  0  0
    1.7718    3.6303    7.4027 O   0  0  0  0  0  0  0  0  0  0  0  0
    1.9914    1.6114    6.3373 N   0  0  0  0  0  0  0  0  0  0  0  0
    2.4170    1.1104    5.0804 C   0  0  0  0  0  0  0  0  0  0  0  0
    2.5045    2.4333    1.8901 C   0  0  0  0  0  0  0  0  0  0  0  0
    3.0390    2.3525    0.5904 C   0  0  0  0  0  0  0  0  0  0  0  0
    2.2668    2.5247   -0.5377 O   0  0  0  0  0  0  0  0  0  0  0  0
    1.2204    3.4852   -0.4312 C   0  0  0  0  0  0  0  0  0  0  0  0
    4.3925    2.0285    0.3986 C   0  0  0  0  0  0  0  0  0  0  0  0
    4.7953    1.9632   -0.9225 O   0  0  0  0  0  0  0  0  0  0  0  0
    5.8502    1.0636   -1.2470 C   0  0  0  0  0  0  0  0  0  0  0  0
    8.3774    1.0184    1.9564 H   0  0  0  0  0  0  0  0  0  0  0  0
    6.9763    0.1250    2.5721 H   0  0  0  0  0  0  0  0  0  0  0  0
    7.3974    1.7645    3.2137 H   0  0  0  0  0  0  0  0  0  0  0  0
    5.3232    1.8985    3.6864 H   0  0  0  0  0  0  0  0  0  0  0  0
    3.2164    5.0989    2.7817 H   0  0  0  0  0  0  0  0  0  0  0  0
    5.2644    5.7330    1.7983 H   0  0  0  0  0  0  0  0  0  0  0  0
    6.6018    5.1276    2.8122 H   0  0  0  0  0  0  0  0  0  0  0  0
    6.2570    6.8954    2.7358 H   0  0  0  0  0  0  0  0  0  0  0  0
    7.3807    6.5276    5.1625 H   0  0  0  0  0  0  0  0  0  0  0  0
    7.5336    6.5602    7.6411 H   0  0  0  0  0  0  0  0  0  0  0  0
    5.5758    5.9606    9.0254 H   0  0  0  0  0  0  0  0  0  0  0  0
    3.5155    5.1155    7.9767 H   0  0  0  0  0  0  0  0  0  0  0  0
    1.6822    1.0667    7.1295 H   0  0  0  0  0  0  0  0  0  0  0  0
    1.6093    0.5520    4.6110 H   0  0  0  0  0  0  0  0  0  0  0  0
    3.2957    0.4797    5.2382 H   0  0  0  0  0  0  0  0  0  0  0  0
    1.4549    2.6567    2.0439 H   0  0  0  0  0  0  0  0  0  0  0  0
    0.8931    3.7361   -1.4433 H   0  0  0  0  0  0  0  0  0  0  0  0
    1.5598    4.4061    0.0503 H   0  0  0  0  0  0  0  0  0  0  0  0
    0.3586    3.0580    0.0991 H   0  0  0  0  0  0  0  0  0  0  0  0
    5.7685    0.8239   -2.3117 H   0  0  0  0  0  0  0  0  0  0  0  0
    5.7837    0.1210   -0.6929 H   0  0  0  0  0  0  0  0  0  0  0  0
    6.8211    1.5455   -1.1044 H   0  0  0  0  0  0  0  0  0  0  0  0
  1  2  1  0  0  0  0
  1 29  1  0  0  0  0
  1 30  1  0  0  0  0
  1 31  1  0  0  0  0
  2  3  1  0  0  0  0
  3  4  1  0  0  0  0
  3 26  2  0  0  0  0
  4  5  2  0  0  0  0
  4 32  1  0  0  0  0
  5  6  1  0  0  0  0
  5 22  1  0  0  0  0
  6  7  2  0  0  0  0
  6 21  1  0  0  0  0
  7  8  1  0  0  0  0
  7 18  1  0  0  0  0
  8  9  2  0  0  0  0
  8 17  1  0  0  0  0
  9 10  1  0  0  0  0
  9 33  1  0  0  0  0
 10 11  1  0  0  0  0
 10 12  1  0  0  0  0
 11 34  1  0  0  0  0
 11 35  1  0  0  0  0
 11 36  1  0  0  0  0
 12 13  1  0  0  0  0
 12 17  2  0  0  0  0
 13 14  2  0  0  0  0
 13 37  1  0  0  0  0
 14 15  1  0  0  0  0
 14 38  1  0  0  0  0
 15 16  2  0  0  0  0
 15 39  1  0  0  0  0
 16 17  1  0  0  0  0
 16 40  1  0  0  0  0
 18 19  2  0  0  0  0
 18 20  1  0  0  0  0
 20 21  1  0  0  0  0
 20 41  1  0  0  0  0
 21 42  1  0  0  0  0
 21 43  1  0  0  0  0
 22 23  2  0  0  0  0
 22 44  1  0  0  0  0
 23 24  1  0  0  0  0
 23 26  1  0  0  0  0
 24 25  1  0  0  0  0
 25 45  1  0  0  0  0
 25 46  1  0  0  0  0
 25 47  1  0  0  0  0
 26 27  1  0  0  0  0
 27 28  1  0  0  0  0
 28 48  1  0  0  0  0
 28 49  1  0  0  0  0
 28 50  1  0  0  0  0
M  END
$$$$
