CHEMBL1242378
 OpenBabel04072215363D

 37 39  0  0  1  0  0  0  0  0999 V2000
    1.1852    0.0308   -0.1899 C   0  0  0  0  0  0  0  0  0  0  0  0
    2.7135    0.1129   -0.1667 C   0  0  2  0  0  0  0  0  0  0  0  0
    3.2850    0.1795    1.2683 C   0  0  0  0  0  0  0  0  0  0  0  0
    2.9456    1.3699    2.0565 N   0  0  0  0  0  0  0  0  0  0  0  0
    3.1765    1.1989   -1.0271 N   0  0  0  0  0  0  0  0  0  0  0  0
    2.8708    2.4829   -0.7260 N   0  0  0  0  0  0  0  0  0  0  0  0
    3.2242    3.1767   -1.8248 C   0  0  0  0  0  0  0  0  0  0  0  0
    2.9510    4.6134   -1.9019 C   0  0  0  0  0  0  0  0  0  0  0  0
    3.0547    5.4279   -0.7584 C   0  0  0  0  0  0  0  0  0  0  0  0
    2.8674    6.8111   -0.8495 C   0  0  0  0  0  0  0  0  0  0  0  0
    2.5945    7.3807   -2.0878 C   0  0  0  0  0  0  0  0  0  0  0  0
    2.4683    8.7093   -2.2026 F   0  0  0  0  0  0  0  0  0  0  0  0
    2.4592    6.5811   -3.2160 C   0  0  0  0  0  0  0  0  0  0  0  0
    2.2237    7.1224   -4.4472 O   0  0  0  0  0  0  0  0  0  0  0  0
    2.5900    5.2030   -3.1207 C   0  0  0  0  0  0  0  0  0  0  0  0
    3.8536    2.3289   -2.7946 C   0  0  0  0  0  0  0  0  0  0  0  0
    4.4491    2.4226   -4.0625 C   0  0  0  0  0  0  0  0  0  0  0  0
    4.6318    3.5915   -4.7869 N   0  0  0  0  0  0  0  0  0  0  0  0
    4.8951    1.2962   -4.6566 N   0  0  0  0  0  0  0  0  0  0  0  0
    4.7582    0.1266   -4.0074 C   0  0  0  0  0  0  0  0  0  0  0  0
    4.2243   -0.0860   -2.7976 N   0  0  0  0  0  0  0  0  0  0  0  0
    3.7934    1.0609   -2.2401 C   0  0  0  0  0  0  0  0  0  0  0  0
    0.8187   -0.0515   -1.2199 H   0  0  0  0  0  0  0  0  0  0  0  0
    0.7196    0.9183    0.2512 H   0  0  0  0  0  0  0  0  0  0  0  0
    0.8357   -0.8476    0.3620 H   0  0  0  0  0  0  0  0  0  0  0  0
    3.0934   -0.8163   -0.6101 H   0  0  0  0  0  0  0  0  0  0  0  0
    2.9337   -0.6985    1.8290 H   0  0  0  0  0  0  0  0  0  0  0  0
    4.3765    0.1034    1.2285 H   0  0  0  0  0  0  0  0  0  0  0  0
    1.9321    1.4481    2.1456 H   0  0  0  0  0  0  0  0  0  0  0  0
    3.1990    2.1920    1.4926 H   0  0  0  0  0  0  0  0  0  0  0  0
    3.2881    4.9863    0.2081 H   0  0  0  0  0  0  0  0  0  0  0  0
    2.9471    7.4424    0.0293 H   0  0  0  0  0  0  0  0  0  0  0  0
    2.2262    8.0912   -4.3398 H   0  0  0  0  0  0  0  0  0  0  0  0
    2.4251    4.6011   -4.0107 H   0  0  0  0  0  0  0  0  0  0  0  0
    4.7994    4.4324   -4.2492 H   0  0  0  0  0  0  0  0  0  0  0  0
    5.2428    3.4437   -5.5826 H   0  0  0  0  0  0  0  0  0  0  0  0
    5.1256   -0.7501   -4.5337 H   0  0  0  0  0  0  0  0  0  0  0  0
  1 23  1  0  0  0  0
  1 24  1  0  0  0  0
  1 25  1  0  0  0  0
  2  5  1  0  0  0  0
  2  3  1  0  0  0  0
  2  1  1  0  0  0  0
  2 26  1  6  0  0  0
  3  4  1  0  0  0  0
  3 27  1  0  0  0  0
  3 28  1  0  0  0  0
  4 29  1  0  0  0  0
  4 30  1  0  0  0  0
  5  6  1  0  0  0  0
  5 22  1  0  0  0  0
  6  7  2  0  0  0  0
  7  8  1  0  0  0  0
  7 16  1  0  0  0  0
  8  9  1  0  0  0  0
  8 15  2  0  0  0  0
  9 10  2  0  0  0  0
  9 31  1  0  0  0  0
 10 11  1  0  0  0  0
 10 32  1  0  0  0  0
 11 12  1  0  0  0  0
 11 13  2  0  0  0  0
 13 14  1  0  0  0  0
 13 15  1  0  0  0  0
 14 33  1  0  0  0  0
 15 34  1  0  0  0  0
 16 17  1  0  0  0  0
 16 22  2  0  0  0  0
 17 18  1  0  0  0  0
 17 19  2  0  0  0  0
 18 35  1  0  0  0  0
 18 36  1  0  0  0  0
 19 20  1  0  0  0  0
 20 21  2  0  0  0  0
 20 37  1  0  0  0  0
 21 22  1  0  0  0  0
M  END
$$$$
