CHEMBL4092519
 OpenBabel04072215383D

 56 60  0  0  0  0  0  0  0  0999 V2000
   -2.3234    2.9407   -3.8680 N   0  0  0  0  0  0  0  0  0  0  0  0
   -3.4601    2.3606   -3.4536 C   0  0  0  0  0  0  0  0  0  0  0  0
   -4.0803    1.5104   -4.2677 N   0  0  0  0  0  0  0  0  0  0  0  0
   -5.1538    1.1396   -3.5706 N   0  0  0  0  0  0  0  0  0  0  0  0
   -5.2367    1.6903   -2.3223 C   0  0  0  0  0  0  0  0  0  0  0  0
   -6.2225    1.5297   -1.3437 C   0  0  0  0  0  0  0  0  0  0  0  0
   -6.0481    2.2060   -0.1454 C   0  0  0  0  0  0  0  0  0  0  0  0
   -4.9391    3.0273    0.0422 C   0  0  0  0  0  0  0  0  0  0  0  0
   -3.9491    3.2293   -0.9592 C   0  0  0  0  0  0  0  0  0  0  0  0
   -2.8382    4.1690   -0.7261 C   0  0  0  0  0  0  0  0  0  0  0  0
   -1.5305    3.9101   -1.1534 C   0  0  0  0  0  0  0  0  0  0  0  0
   -0.5365    4.8922   -1.0970 C   0  0  0  0  0  0  0  0  0  0  0  0
   -0.7990    6.0920   -0.4471 C   0  0  0  0  0  0  0  0  0  0  0  0
    0.1719    7.0893   -0.3071 N   0  0  0  0  0  0  0  0  0  0  0  0
    0.9130    7.5874   -1.3533 C   0  0  0  0  0  0  0  0  0  0  0  0
    0.8582    7.1905   -2.5109 O   0  0  0  0  0  0  0  0  0  0  0  0
    1.8445    8.7228   -1.0102 C   0  0  0  0  0  0  0  0  0  0  0  0
    2.0450    9.7352   -2.1115 C   0  0  0  0  0  0  0  0  0  0  0  0
    1.4160   10.7855   -2.0896 O   0  0  0  0  0  0  0  0  0  0  0  0
    3.0111    9.3898   -3.0337 N   0  0  0  0  0  0  0  0  0  0  0  0
    3.2464   10.0668   -4.2459 C   0  0  0  0  0  0  0  0  0  0  0  0
    2.1523   10.4949   -5.0161 C   0  0  0  0  0  0  0  0  0  0  0  0
    2.3560   11.1600   -6.2252 C   0  0  0  0  0  0  0  0  0  0  0  0
    0.8774   11.6519   -7.2962 Br  0  0  0  0  0  0  0  0  0  0  0  0
    3.6428   11.4519   -6.6588 C   0  0  0  0  0  0  0  0  0  0  0  0
    4.7326   11.0248   -5.9001 C   0  0  0  0  0  0  0  0  0  0  0  0
    4.5509   10.2858   -4.7201 C   0  0  0  0  0  0  0  0  0  0  0  0
    5.7226   10.0296   -4.0666 O   0  0  0  0  0  0  0  0  0  0  0  0
    5.9294    8.7766   -3.4437 C   0  0  0  0  0  0  0  0  0  0  0  0
    4.9199    7.8989   -3.6189 F   0  0  0  0  0  0  0  0  0  0  0  0
    7.0571    8.2212   -3.9346 F   0  0  0  0  0  0  0  0  0  0  0  0
    6.0936    8.9682   -2.1131 F   0  0  0  0  0  0  0  0  0  0  0  0
    3.0310    8.3562   -0.1172 C   0  0  0  0  0  0  0  0  0  0  0  0
    1.9796    9.2737    0.4200 C   0  0  0  0  0  0  0  0  0  0  0  0
   -2.0418    6.3186    0.1267 C   0  0  0  0  0  0  0  0  0  0  0  0
   -3.0635    5.3876   -0.0607 C   0  0  0  0  0  0  0  0  0  0  0  0
   -4.1187    2.5105   -2.1921 C   0  0  0  0  0  0  0  0  0  0  0  0
   -2.0867    2.8037   -4.8434 H   0  0  0  0  0  0  0  0  0  0  0  0
   -2.0727    3.8644   -3.5316 H   0  0  0  0  0  0  0  0  0  0  0  0
   -5.8089    0.5030   -4.0050 H   0  0  0  0  0  0  0  0  0  0  0  0
   -7.0855    0.8954   -1.5040 H   0  0  0  0  0  0  0  0  0  0  0  0
   -6.7840    2.1022    0.6498 H   0  0  0  0  0  0  0  0  0  0  0  0
   -4.8396    3.5286    1.0040 H   0  0  0  0  0  0  0  0  0  0  0  0
   -1.2718    2.9425   -1.5819 H   0  0  0  0  0  0  0  0  0  0  0  0
    0.4414    4.6880   -1.5262 H   0  0  0  0  0  0  0  0  0  0  0  0
    0.0723    7.6742    0.5117 H   0  0  0  0  0  0  0  0  0  0  0  0
    3.5111    8.5200   -2.8859 H   0  0  0  0  0  0  0  0  0  0  0  0
    1.1374   10.2701   -4.6941 H   0  0  0  0  0  0  0  0  0  0  0  0
    3.8098   12.0130   -7.5745 H   0  0  0  0  0  0  0  0  0  0  0  0
    5.7381   11.2852   -6.2276 H   0  0  0  0  0  0  0  0  0  0  0  0
    4.0049    8.7874   -0.3138 H   0  0  0  0  0  0  0  0  0  0  0  0
    3.0760    7.3473    0.2833 H   0  0  0  0  0  0  0  0  0  0  0  0
    2.2322   10.3246    0.5323 H   0  0  0  0  0  0  0  0  0  0  0  0
    1.3640    8.9219    1.2358 H   0  0  0  0  0  0  0  0  0  0  0  0
   -2.2616    7.2474    0.6440 H   0  0  0  0  0  0  0  0  0  0  0  0
   -4.0534    5.6386    0.3116 H   0  0  0  0  0  0  0  0  0  0  0  0
  1  2  1  0  0  0  0
  1 38  1  0  0  0  0
  1 39  1  0  0  0  0
  2  3  2  0  0  0  0
  2 37  1  0  0  0  0
  3  4  1  0  0  0  0
  4  5  1  0  0  0  0
  4 40  1  0  0  0  0
  5  6  1  0  0  0  0
  5 37  2  0  0  0  0
  6  7  2  0  0  0  0
  6 41  1  0  0  0  0
  7  8  1  0  0  0  0
  7 42  1  0  0  0  0
  8  9  2  0  0  0  0
  8 43  1  0  0  0  0
  9 10  1  0  0  0  0
  9 37  1  0  0  0  0
 10 11  1  0  0  0  0
 10 36  2  0  0  0  0
 11 12  2  0  0  0  0
 11 44  1  0  0  0  0
 12 13  1  0  0  0  0
 12 45  1  0  0  0  0
 13 14  1  0  0  0  0
 13 35  2  0  0  0  0
 14 15  1  0  0  0  0
 14 46  1  0  0  0  0
 15 16  2  0  0  0  0
 15 17  1  0  0  0  0
 17 18  1  0  0  0  0
 17 33  1  0  0  0  0
 17 34  1  0  0  0  0
 18 19  2  0  0  0  0
 18 20  1  0  0  0  0
 20 21  1  0  0  0  0
 20 47  1  0  0  0  0
 21 22  1  0  0  0  0
 21 27  2  0  0  0  0
 22 23  2  0  0  0  0
 22 48  1  0  0  0  0
 23 24  1  0  0  0  0
 23 25  1  0  0  0  0
 25 26  2  0  0  0  0
 25 49  1  0  0  0  0
 26 27  1  0  0  0  0
 26 50  1  0  0  0  0
 27 28  1  0  0  0  0
 28 29  1  0  0  0  0
 29 30  1  0  0  0  0
 29 31  1  0  0  0  0
 29 32  1  0  0  0  0
 33 34  1  0  0  0  0
 33 51  1  0  0  0  0
 33 52  1  0  0  0  0
 34 53  1  0  0  0  0
 34 54  1  0  0  0  0
 35 36  1  0  0  0  0
 35 55  1  0  0  0  0
 36 56  1  0  0  0  0
M  END
$$$$
