CHEMBL2079588
 OpenBabel04072215363D

 45 48  0  0  0  0  0  0  0  0999 V2000
    9.0031   -4.2541   -0.6583 C   0  0  0  0  0  0  0  0  0  0  0  0
    8.0766   -3.5574    0.1880 N   0  0  0  0  0  0  0  0  0  0  0  0
    8.1679   -2.1968    0.3825 C   0  0  0  0  0  0  0  0  0  0  0  0
    9.0271   -1.4938   -0.1384 O   0  0  0  0  0  0  0  0  0  0  0  0
    7.1271   -1.6219    1.2917 C   0  0  0  0  0  0  0  0  0  0  0  0
    7.0982   -0.2519    1.5036 C   0  0  0  0  0  0  0  0  0  0  0  0
    6.1149    0.2754    2.3431 C   0  0  0  0  0  0  0  0  0  0  0  0
    6.0485    1.7538    2.6339 C   0  0  0  0  0  0  0  0  0  0  0  0
    6.5128    2.4839    1.5017 O   0  0  0  0  0  0  0  0  0  0  0  0
    6.9428    3.7534    1.8090 C   0  0  0  0  0  0  0  0  0  0  0  0
    7.9270    4.2492    1.0396 N   0  0  0  0  0  0  0  0  0  0  0  0
    8.4438    5.5257    1.2605 N   0  0  0  0  0  0  0  0  0  0  0  0
    7.9928    6.3683    2.2323 C   0  0  0  0  0  0  0  0  0  0  0  0
    8.5572    7.6381    2.4060 N   0  0  0  0  0  0  0  0  0  0  0  0
    9.8487    8.0497    2.0398 C   0  0  0  0  0  0  0  0  0  0  0  0
   10.0770    9.3803    1.6686 C   0  0  0  0  0  0  0  0  0  0  0  0
   11.3328    9.7832    1.1995 C   0  0  0  0  0  0  0  0  0  0  0  0
   12.3714    8.8582    1.1097 C   0  0  0  0  0  0  0  0  0  0  0  0
   13.9062    9.3436    0.5054 Cl  0  0  0  0  0  0  0  0  0  0  0  0
   12.1692    7.5382    1.4925 C   0  0  0  0  0  0  0  0  0  0  0  0
   10.9111    7.1388    1.9438 C   0  0  0  0  0  0  0  0  0  0  0  0
    6.9351    5.8869    3.0246 C   0  0  0  0  0  0  0  0  0  0  0  0
    6.1781    6.3913    4.1247 C   0  0  0  0  0  0  0  0  0  0  0  0
    5.3002    5.3984    4.4867 C   0  0  0  0  0  0  0  0  0  0  0  0
    5.4500    4.3186    3.6829 O   0  0  0  0  0  0  0  0  0  0  0  0
    6.4508    4.6013    2.7954 C   0  0  0  0  0  0  0  0  0  0  0  0
    5.2268   -0.6087    2.9633 C   0  0  0  0  0  0  0  0  0  0  0  0
    5.3329   -1.9670    2.6960 C   0  0  0  0  0  0  0  0  0  0  0  0
    6.2583   -2.5007    1.8698 N   0  0  0  0  0  0  0  0  0  0  0  0
    8.7448   -5.3144   -0.6720 H   0  0  0  0  0  0  0  0  0  0  0  0
   10.0155   -4.1169   -0.2685 H   0  0  0  0  0  0  0  0  0  0  0  0
    8.9497   -3.8393   -1.6689 H   0  0  0  0  0  0  0  0  0  0  0  0
    7.3245   -4.0422    0.6703 H   0  0  0  0  0  0  0  0  0  0  0  0
    7.8269    0.3883    1.0127 H   0  0  0  0  0  0  0  0  0  0  0  0
    6.6616    1.9435    3.5248 H   0  0  0  0  0  0  0  0  0  0  0  0
    5.0049    2.0318    2.8186 H   0  0  0  0  0  0  0  0  0  0  0  0
    8.0436    8.2786    2.9928 H   0  0  0  0  0  0  0  0  0  0  0  0
    9.2686   10.1066    1.6984 H   0  0  0  0  0  0  0  0  0  0  0  0
   11.4876   10.8116    0.8857 H   0  0  0  0  0  0  0  0  0  0  0  0
   12.9702    6.8074    1.4288 H   0  0  0  0  0  0  0  0  0  0  0  0
   10.7718    6.0980    2.2286 H   0  0  0  0  0  0  0  0  0  0  0  0
    6.2736    7.3546    4.6049 H   0  0  0  0  0  0  0  0  0  0  0  0
    4.5459    5.3054    5.2564 H   0  0  0  0  0  0  0  0  0  0  0  0
    4.4611   -0.2506    3.6461 H   0  0  0  0  0  0  0  0  0  0  0  0
    4.6559   -2.6765    3.1596 H   0  0  0  0  0  0  0  0  0  0  0  0
  1  2  1  0  0  0  0
  1 30  1  0  0  0  0
  1 31  1  0  0  0  0
  1 32  1  0  0  0  0
  2  3  1  0  0  0  0
  2 33  1  0  0  0  0
  3  4  2  0  0  0  0
  3  5  1  0  0  0  0
  5  6  1  0  0  0  0
  5 29  2  0  0  0  0
  6  7  2  0  0  0  0
  6 34  1  0  0  0  0
  7  8  1  0  0  0  0
  7 27  1  0  0  0  0
  8  9  1  0  0  0  0
  8 35  1  0  0  0  0
  8 36  1  0  0  0  0
  9 10  1  0  0  0  0
 10 11  1  0  0  0  0
 10 26  2  0  0  0  0
 11 12  2  0  0  0  0
 12 13  1  0  0  0  0
 13 14  1  0  0  0  0
 13 22  2  0  0  0  0
 14 15  1  0  0  0  0
 14 37  1  0  0  0  0
 15 16  1  0  0  0  0
 15 21  2  0  0  0  0
 16 17  2  0  0  0  0
 16 38  1  0  0  0  0
 17 18  1  0  0  0  0
 17 39  1  0  0  0  0
 18 19  1  0  0  0  0
 18 20  2  0  0  0  0
 20 21  1  0  0  0  0
 20 40  1  0  0  0  0
 21 41  1  0  0  0  0
 22 23  1  0  0  0  0
 22 26  1  0  0  0  0
 23 24  2  0  0  0  0
 23 42  1  0  0  0  0
 24 25  1  0  0  0  0
 24 43  1  0  0  0  0
 25 26  1  0  0  0  0
 27 28  2  0  0  0  0
 27 44  1  0  0  0  0
 28 29  1  0  0  0  0
 28 45  1  0  0  0  0
M  END
$$$$
