CHEMBL245376
 OpenBabel04072215363D

 43 45  0  0  0  0  0  0  0  0999 V2000
    7.8256   -0.3017   -2.6315 C   0  0  0  0  0  0  0  0  0  0  0  0
    6.4902   -0.4087   -1.9101 C   0  0  0  0  0  0  0  0  0  0  0  0
    6.5206   -1.5678   -1.0234 N   0  0  0  0  0  0  0  0  0  0  0  0
    5.2691   -1.7187   -0.2818 C   0  0  0  0  0  0  0  0  0  0  0  0
    5.3160   -2.9131    0.6350 C   0  0  0  0  0  0  0  0  0  0  0  0
    4.4047   -3.9547    0.5048 C   0  0  0  0  0  0  0  0  0  0  0  0
    4.3770   -5.0440    1.3046 N   0  0  0  0  0  0  0  0  0  0  0  0
    5.3138   -5.1028    2.2832 C   0  0  0  0  0  0  0  0  0  0  0  0
    6.2830   -4.1293    2.5124 C   0  0  0  0  0  0  0  0  0  0  0  0
    7.2927   -4.3201    3.5656 C   0  0  0  0  0  0  0  0  0  0  0  0
    7.8778   -3.3128    4.2334 C   0  0  0  0  0  0  0  0  0  0  0  0
    8.7918   -3.4703    5.3112 C   0  0  0  0  0  0  0  0  0  0  0  0
   10.1592   -3.5407    5.2070 C   0  0  0  0  0  0  0  0  0  0  0  0
   10.6257   -3.5670    6.4904 N   0  0  0  0  0  0  0  0  0  0  0  0
    9.6570   -3.5061    7.4253 N   0  0  0  0  0  0  0  0  0  0  0  0
    8.5254   -3.4787    6.7031 C   0  0  0  0  0  0  0  0  0  0  0  0
    7.1764   -3.4661    7.3371 C   0  0  0  0  0  0  0  0  0  0  0  0
    6.0342   -3.5935    6.6967 N   0  0  0  0  0  0  0  0  0  0  0  0
    5.0395   -3.6045    7.6601 C   0  0  0  0  0  0  0  0  0  0  0  0
    3.5978   -3.8279    7.3110 C   0  0  0  0  0  0  0  0  0  0  0  0
    3.3894   -4.0015    5.9798 F   0  0  0  0  0  0  0  0  0  0  0  0
    3.0999   -4.9345    7.9291 F   0  0  0  0  0  0  0  0  0  0  0  0
    2.8143   -2.7854    7.6982 F   0  0  0  0  0  0  0  0  0  0  0  0
    5.6157   -3.4053    8.9057 C   0  0  0  0  0  0  0  0  0  0  0  0
    6.9656   -3.3489    8.6871 N   0  0  0  0  0  0  0  0  0  0  0  0
    6.2646   -3.0173    1.6638 C   0  0  0  0  0  0  0  0  0  0  0  0
    7.8218    0.5535   -3.3143 H   0  0  0  0  0  0  0  0  0  0  0  0
    8.0296   -1.2032   -3.2196 H   0  0  0  0  0  0  0  0  0  0  0  0
    8.6493   -0.1635   -1.9223 H   0  0  0  0  0  0  0  0  0  0  0  0
    5.6899   -0.5143   -2.6508 H   0  0  0  0  0  0  0  0  0  0  0  0
    6.3131    0.5116   -1.3414 H   0  0  0  0  0  0  0  0  0  0  0  0
    7.2934   -1.4689   -0.3680 H   0  0  0  0  0  0  0  0  0  0  0  0
    4.4389   -1.8325   -0.9901 H   0  0  0  0  0  0  0  0  0  0  0  0
    5.0592   -0.8266    0.3216 H   0  0  0  0  0  0  0  0  0  0  0  0
    3.6449   -3.9472   -0.2727 H   0  0  0  0  0  0  0  0  0  0  0  0
    5.2516   -5.9918    2.9057 H   0  0  0  0  0  0  0  0  0  0  0  0
    7.5214   -5.3507    3.8304 H   0  0  0  0  0  0  0  0  0  0  0  0
    7.5924   -2.2859    4.0201 H   0  0  0  0  0  0  0  0  0  0  0  0
   10.8293   -3.5546    4.3593 H   0  0  0  0  0  0  0  0  0  0  0  0
   11.5918   -3.6087    6.7998 H   0  0  0  0  0  0  0  0  0  0  0  0
    5.1900   -3.3295    9.8974 H   0  0  0  0  0  0  0  0  0  0  0  0
    7.7065   -3.2426    9.3653 H   0  0  0  0  0  0  0  0  0  0  0  0
    6.9984   -2.2262    1.7863 H   0  0  0  0  0  0  0  0  0  0  0  0
  1  2  1  0  0  0  0
  1 27  1  0  0  0  0
  1 28  1  0  0  0  0
  1 29  1  0  0  0  0
  2  3  1  0  0  0  0
  2 30  1  0  0  0  0
  2 31  1  0  0  0  0
  3  4  1  0  0  0  0
  3 32  1  0  0  0  0
  4  5  1  0  0  0  0
  4 33  1  0  0  0  0
  4 34  1  0  0  0  0
  5  6  1  0  0  0  0
  5 26  2  0  0  0  0
  6  7  2  0  0  0  0
  6 35  1  0  0  0  0
  7  8  1  0  0  0  0
  8  9  2  0  0  0  0
  8 36  1  0  0  0  0
  9 10  1  0  0  0  0
  9 26  1  0  0  0  0
 10 11  2  0  0  0  0
 10 37  1  0  0  0  0
 11 12  1  0  0  0  0
 11 38  1  0  0  0  0
 12 13  2  0  0  0  0
 12 16  1  0  0  0  0
 13 14  1  0  0  0  0
 13 39  1  0  0  0  0
 14 15  1  0  0  0  0
 14 40  1  0  0  0  0
 15 16  2  0  0  0  0
 16 17  1  0  0  0  0
 17 18  2  0  0  0  0
 17 25  1  0  0  0  0
 18 19  1  0  0  0  0
 19 20  1  0  0  0  0
 19 24  2  0  0  0  0
 20 21  1  0  0  0  0
 20 22  1  0  0  0  0
 20 23  1  0  0  0  0
 24 25  1  0  0  0  0
 24 41  1  0  0  0  0
 25 42  1  0  0  0  0
 26 43  1  0  0  0  0
M  END
$$$$
