CHEMBL3935232
 OpenBabel04072215373D

 64 67  0  0  0  0  0  0  0  0999 V2000
    2.4107   -1.3618    1.8526 C   0  0  0  0  0  0  0  0  0  0  0  0
    3.2702   -0.7927    0.8228 N   0  0  0  0  0  0  0  0  0  0  0  0
    3.8635   -1.8640    0.0005 C   0  0  0  0  0  0  0  0  0  0  0  0
    4.6555   -1.2667   -1.1857 C   0  0  0  0  0  0  0  0  0  0  0  0
    5.3126   -2.3149   -2.0540 N   0  0  0  0  0  0  0  0  0  0  0  0
    4.3512   -2.9211   -2.9718 C   0  0  0  0  0  0  0  0  0  0  0  0
    2.9628   -2.6508   -2.8643 C   0  0  0  0  0  0  0  0  0  0  0  0
    1.9701   -3.3336   -3.5681 C   0  0  0  0  0  0  0  0  0  0  0  0
    0.6204   -3.1937   -3.3706 O   0  0  0  0  0  0  0  0  0  0  0  0
    0.2056   -2.4009   -2.2574 C   0  0  0  0  0  0  0  0  0  0  0  0
    2.3571   -4.2157   -4.5544 C   0  0  0  0  0  0  0  0  0  0  0  0
    3.7170   -4.3654   -4.8436 C   0  0  0  0  0  0  0  0  0  0  0  0
    4.1745   -5.1115   -5.9072 O   0  0  0  0  0  0  0  0  0  0  0  0
    3.2380   -5.2791   -6.9748 C   0  0  0  0  0  0  0  0  0  0  0  0
    4.7065   -3.7513   -4.0384 C   0  0  0  0  0  0  0  0  0  0  0  0
    6.7566   -2.3443   -2.0051 C   0  0  0  0  0  0  0  0  0  0  0  0
    7.4529   -1.1999   -1.5977 C   0  0  0  0  0  0  0  0  0  0  0  0
    8.8173   -1.0428   -1.7474 C   0  0  0  0  0  0  0  0  0  0  0  0
    9.6052   -2.0473   -2.1986 C   0  0  0  0  0  0  0  0  0  0  0  0
   10.8669   -1.6706   -2.4051 N   0  0  0  0  0  0  0  0  0  0  0  0
   11.7458   -2.6609   -2.5013 C   0  0  0  0  0  0  0  0  0  0  0  0
   11.3881   -3.9766   -2.3101 C   0  0  0  0  0  0  0  0  0  0  0  0
   12.4395   -4.7974   -1.7137 C   0  0  0  0  0  0  0  0  0  0  0  0
   13.2928   -5.8073   -2.2046 C   0  0  0  0  0  0  0  0  0  0  0  0
   14.2593   -6.1435   -1.3352 N   0  0  0  0  0  0  0  0  0  0  0  0
   14.0400   -5.3394   -0.2659 N   0  0  0  0  0  0  0  0  0  0  0  0
   14.6816   -5.6686    1.0059 C   0  0  0  0  0  0  0  0  0  0  0  0
   15.1352   -4.5066    1.8732 C   0  0  0  0  0  0  0  0  0  0  0  0
   14.4083   -3.5602    2.1650 O   0  0  0  0  0  0  0  0  0  0  0  0
   16.4093   -4.6486    2.4018 N   0  0  0  0  0  0  0  0  0  0  0  0
   16.9701   -3.7283    3.3710 C   0  0  0  0  0  0  0  0  0  0  0  0
   13.0257   -4.4537   -0.4992 C   0  0  0  0  0  0  0  0  0  0  0  0
   10.0587   -4.3686   -2.3111 N   0  0  0  0  0  0  0  0  0  0  0  0
    9.0965   -3.3572   -2.2956 C   0  0  0  0  0  0  0  0  0  0  0  0
    7.6273   -3.4451   -2.3144 C   0  0  0  0  0  0  0  0  0  0  0  0
    2.0182   -0.5621    2.4877 H   0  0  0  0  0  0  0  0  0  0  0  0
    2.9610   -2.0630    2.4875 H   0  0  0  0  0  0  0  0  0  0  0  0
    1.5551   -1.8763    1.4032 H   0  0  0  0  0  0  0  0  0  0  0  0
    4.0200   -0.2656    1.2739 H   0  0  0  0  0  0  0  0  0  0  0  0
    3.0623   -2.5241   -0.3378 H   0  0  0  0  0  0  0  0  0  0  0  0
    4.5372   -2.4778    0.6074 H   0  0  0  0  0  0  0  0  0  0  0  0
    5.3332   -0.5709   -0.7027 H   0  0  0  0  0  0  0  0  0  0  0  0
    4.0568   -0.5814   -1.8059 H   0  0  0  0  0  0  0  0  0  0  0  0
    2.5953   -1.8706   -2.2148 H   0  0  0  0  0  0  0  0  0  0  0  0
   -0.8782   -2.5037   -2.1472 H   0  0  0  0  0  0  0  0  0  0  0  0
    0.4214   -1.3419   -2.4364 H   0  0  0  0  0  0  0  0  0  0  0  0
    0.6627   -2.7414   -1.3206 H   0  0  0  0  0  0  0  0  0  0  0  0
    1.5852   -4.7558   -5.0922 H   0  0  0  0  0  0  0  0  0  0  0  0
    3.7838   -5.6278   -7.8559 H   0  0  0  0  0  0  0  0  0  0  0  0
    2.7500   -4.3339   -7.2447 H   0  0  0  0  0  0  0  0  0  0  0  0
    2.4908   -6.0404   -6.7233 H   0  0  0  0  0  0  0  0  0  0  0  0
    5.7445   -3.9153   -4.3036 H   0  0  0  0  0  0  0  0  0  0  0  0
    6.9952   -0.3142   -1.1815 H   0  0  0  0  0  0  0  0  0  0  0  0
    9.2792   -0.1043   -1.4550 H   0  0  0  0  0  0  0  0  0  0  0  0
   12.7918   -2.3428   -2.5736 H   0  0  0  0  0  0  0  0  0  0  0  0
   13.2770   -6.3010   -3.1677 H   0  0  0  0  0  0  0  0  0  0  0  0
   15.5274   -6.3292    0.7863 H   0  0  0  0  0  0  0  0  0  0  0  0
   13.9421   -6.2423    1.5758 H   0  0  0  0  0  0  0  0  0  0  0  0
   16.9950   -5.4219    2.1109 H   0  0  0  0  0  0  0  0  0  0  0  0
   16.2557   -2.9581    3.6700 H   0  0  0  0  0  0  0  0  0  0  0  0
   17.8562   -3.2623    2.9321 H   0  0  0  0  0  0  0  0  0  0  0  0
   17.2752   -4.3019    4.2517 H   0  0  0  0  0  0  0  0  0  0  0  0
   12.7895   -3.6693    0.2100 H   0  0  0  0  0  0  0  0  0  0  0  0
    7.1897   -4.4239   -2.5203 H   0  0  0  0  0  0  0  0  0  0  0  0
  1  2  1  0  0  0  0
  1 36  1  0  0  0  0
  1 37  1  0  0  0  0
  1 38  1  0  0  0  0
  2  3  1  0  0  0  0
  2 39  1  0  0  0  0
  3  4  1  0  0  0  0
  3 40  1  0  0  0  0
  3 41  1  0  0  0  0
  4  5  1  0  0  0  0
  4 42  1  0  0  0  0
  4 43  1  0  0  0  0
  5  6  1  0  0  0  0
  5 16  1  0  0  0  0
  6  7  1  0  0  0  0
  6 15  2  0  0  0  0
  7  8  2  0  0  0  0
  7 44  1  0  0  0  0
  8  9  1  0  0  0  0
  8 11  1  0  0  0  0
  9 10  1  0  0  0  0
 10 45  1  0  0  0  0
 10 46  1  0  0  0  0
 10 47  1  0  0  0  0
 11 12  2  0  0  0  0
 11 48  1  0  0  0  0
 12 13  1  0  0  0  0
 12 15  1  0  0  0  0
 13 14  1  0  0  0  0
 14 49  1  0  0  0  0
 14 50  1  0  0  0  0
 14 51  1  0  0  0  0
 15 52  1  0  0  0  0
 16 17  1  0  0  0  0
 16 35  2  0  0  0  0
 17 18  2  0  0  0  0
 17 53  1  0  0  0  0
 18 19  1  0  0  0  0
 18 54  1  0  0  0  0
 19 20  1  0  0  0  0
 19 34  2  0  0  0  0
 20 21  2  0  0  0  0
 21 22  1  0  0  0  0
 21 55  1  0  0  0  0
 22 23  1  0  0  0  0
 22 33  2  0  0  0  0
 23 24  1  0  0  0  0
 23 32  2  0  0  0  0
 24 25  2  0  0  0  0
 24 56  1  0  0  0  0
 25 26  1  0  0  0  0
 26 27  1  0  0  0  0
 26 32  1  0  0  0  0
 27 28  1  0  0  0  0
 27 57  1  0  0  0  0
 27 58  1  0  0  0  0
 28 29  2  0  0  0  0
 28 30  1  0  0  0  0
 30 31  1  0  0  0  0
 30 59  1  0  0  0  0
 31 60  1  0  0  0  0
 31 61  1  0  0  0  0
 31 62  1  0  0  0  0
 32 63  1  0  0  0  0
 33 34  1  0  0  0  0
 34 35  1  0  0  0  0
 35 64  1  0  0  0  0
M  END
$$$$
