CHEMBL383417
 OpenBabel04072215373D

 33 36  0  0  0  0  0  0  0  0999 V2000
    0.9065   -0.1886   -0.0716 N   0  0  0  0  0  0  0  0  0  0  0  0
    2.2919   -0.1896   -0.2044 C   0  0  0  0  0  0  0  0  0  0  0  0
    3.0458   -1.3103   -0.3371 C   0  0  0  0  0  0  0  0  0  0  0  0
    2.4714   -2.6280   -0.3830 C   0  0  0  0  0  0  0  0  0  0  0  0
    1.2960   -3.1077   -0.7843 N   0  0  0  0  0  0  0  0  0  0  0  0
    1.3514   -4.4754   -0.5534 C   0  0  0  0  0  0  0  0  0  0  0  0
    0.4226   -5.4963   -0.8141 C   0  0  0  0  0  0  0  0  0  0  0  0
    0.7250   -6.8083   -0.4022 C   0  0  0  0  0  0  0  0  0  0  0  0
    1.9276   -7.1041    0.2451 C   0  0  0  0  0  0  0  0  0  0  0  0
    2.8825   -6.1138    0.4680 C   0  0  0  0  0  0  0  0  0  0  0  0
    2.5504   -4.8260    0.0483 C   0  0  0  0  0  0  0  0  0  0  0  0
    3.2481   -3.6594    0.0882 N   0  0  0  0  0  0  0  0  0  0  0  0
    4.5526   -1.2055   -0.3775 C   0  0  0  0  0  0  0  0  0  0  0  0
    5.2861   -2.1941   -0.4427 O   0  0  0  0  0  0  0  0  0  0  0  0
    5.1138    0.0241   -0.2905 N   0  0  0  0  0  0  0  0  0  0  0  0
    4.3828    1.1979   -0.1842 C   0  0  0  0  0  0  0  0  0  0  0  0
    5.0931    2.4018   -0.1246 C   0  0  0  0  0  0  0  0  0  0  0  0
    4.4024    3.6032   -0.0429 C   0  0  0  0  0  0  0  0  0  0  0  0
    3.0118    3.5902    0.0010 C   0  0  0  0  0  0  0  0  0  0  0  0
    2.3093    2.3720   -0.0344 C   0  0  0  0  0  0  0  0  0  0  0  0
    2.9810    1.1455   -0.1451 C   0  0  0  0  0  0  0  0  0  0  0  0
    0.4989   -1.0985   -0.3271 H   0  0  0  0  0  0  0  0  0  0  0  0
    0.4407    0.5606   -0.5707 H   0  0  0  0  0  0  0  0  0  0  0  0
   -0.5118   -5.2777   -1.3185 H   0  0  0  0  0  0  0  0  0  0  0  0
    0.0103   -7.6080   -0.5828 H   0  0  0  0  0  0  0  0  0  0  0  0
    2.1318   -8.1202    0.5766 H   0  0  0  0  0  0  0  0  0  0  0  0
    3.8284   -6.3299    0.9529 H   0  0  0  0  0  0  0  0  0  0  0  0
    4.2234   -3.5693    0.3598 H   0  0  0  0  0  0  0  0  0  0  0  0
    6.1257    0.0447   -0.3011 H   0  0  0  0  0  0  0  0  0  0  0  0
    6.1803    2.4108   -0.1490 H   0  0  0  0  0  0  0  0  0  0  0  0
    4.9461    4.5441   -0.0131 H   0  0  0  0  0  0  0  0  0  0  0  0
    2.4657    4.5291    0.0719 H   0  0  0  0  0  0  0  0  0  0  0  0
    1.2248    2.4188    0.0325 H   0  0  0  0  0  0  0  0  0  0  0  0
  1  2  1  0  0  0  0
  1 22  1  0  0  0  0
  1 23  1  0  0  0  0
  2  3  2  0  0  0  0
  2 21  1  0  0  0  0
  3  4  1  0  0  0  0
  3 13  1  0  0  0  0
  4  5  2  0  0  0  0
  4 12  1  0  0  0  0
  5  6  1  0  0  0  0
  6  7  1  0  0  0  0
  6 11  2  0  0  0  0
  7  8  2  0  0  0  0
  7 24  1  0  0  0  0
  8  9  1  0  0  0  0
  8 25  1  0  0  0  0
  9 10  2  0  0  0  0
  9 26  1  0  0  0  0
 10 11  1  0  0  0  0
 10 27  1  0  0  0  0
 11 12  1  0  0  0  0
 12 28  1  0  0  0  0
 13 14  2  0  0  0  0
 13 15  1  0  0  0  0
 15 16  1  0  0  0  0
 15 29  1  0  0  0  0
 16 17  1  0  0  0  0
 16 21  2  0  0  0  0
 17 18  2  0  0  0  0
 17 30  1  0  0  0  0
 18 19  1  0  0  0  0
 18 31  1  0  0  0  0
 19 20  2  0  0  0  0
 19 32  1  0  0  0  0
 20 21  1  0  0  0  0
 20 33  1  0  0  0  0
M  END
$$$$
