CHEMBL3905212
 OpenBabel04072215373D

 57 61  0  0  0  0  0  0  0  0999 V2000
    0.3404    2.5856   -2.6524 C   0  0  0  0  0  0  0  0  0  0  0  0
    1.5870    2.4359   -3.3357 O   0  0  0  0  0  0  0  0  0  0  0  0
    2.6540    1.9564   -2.6018 C   0  0  0  0  0  0  0  0  0  0  0  0
    2.5655    1.6286   -1.2474 C   0  0  0  0  0  0  0  0  0  0  0  0
    3.6728    1.1001   -0.5873 C   0  0  0  0  0  0  0  0  0  0  0  0
    3.7123    0.7103    0.7180 O   0  0  0  0  0  0  0  0  0  0  0  0
    2.5581    0.9760    1.5082 C   0  0  0  0  0  0  0  0  0  0  0  0
    4.8678    0.8981   -1.2954 C   0  0  0  0  0  0  0  0  0  0  0  0
    5.0038    1.2082   -2.6534 C   0  0  0  0  0  0  0  0  0  0  0  0
    6.1453    0.8251   -3.4003 N   0  0  0  0  0  0  0  0  0  0  0  0
    6.8150   -0.4793   -2.9737 C   0  0  0  0  0  0  0  0  0  0  0  0
    5.9222   -1.7405   -3.0635 C   0  0  0  0  0  0  0  0  0  0  0  0
    6.6555   -2.9869   -2.6778 C   0  0  0  0  0  0  0  0  0  0  0  0
    7.9478   -3.2206   -2.6938 N   0  0  0  0  0  0  0  0  0  0  0  0
    8.1141   -4.5157   -2.2696 N   0  0  0  0  0  0  0  0  0  0  0  0
    6.9487   -5.0806   -1.9982 N   0  0  0  0  0  0  0  0  0  0  0  0
    6.0379   -4.1372   -2.2509 N   0  0  0  0  0  0  0  0  0  0  0  0
    7.1533    1.6543   -4.0272 C   0  0  0  0  0  0  0  0  0  0  0  0
    7.6864    1.1211   -5.2008 C   0  0  0  0  0  0  0  0  0  0  0  0
    8.9906    1.3909   -5.5513 C   0  0  0  0  0  0  0  0  0  0  0  0
    9.7358    2.3232   -4.8651 C   0  0  0  0  0  0  0  0  0  0  0  0
   11.0392    2.3096   -5.1807 N   0  0  0  0  0  0  0  0  0  0  0  0
   11.7798    3.3111   -4.6974 C   0  0  0  0  0  0  0  0  0  0  0  0
   11.2213    4.3669   -4.0124 C   0  0  0  0  0  0  0  0  0  0  0  0
   12.0311    5.5891   -3.9891 C   0  0  0  0  0  0  0  0  0  0  0  0
   11.9572    6.7242   -4.8405 C   0  0  0  0  0  0  0  0  0  0  0  0
   13.0195    7.5345   -4.7328 N   0  0  0  0  0  0  0  0  0  0  0  0
   13.7885    6.9196   -3.8194 N   0  0  0  0  0  0  0  0  0  0  0  0
   14.9209    7.6035   -3.2370 C   0  0  0  0  0  0  0  0  0  0  0  0
   13.3151    5.6818   -3.4709 C   0  0  0  0  0  0  0  0  0  0  0  0
    9.9134    4.3166   -3.5703 N   0  0  0  0  0  0  0  0  0  0  0  0
    9.1462    3.2013   -3.9390 C   0  0  0  0  0  0  0  0  0  0  0  0
    7.8297    2.7829   -3.4728 C   0  0  0  0  0  0  0  0  0  0  0  0
    3.8652    1.7593   -3.2925 C   0  0  0  0  0  0  0  0  0  0  0  0
   -0.4090    2.9434   -3.3650 H   0  0  0  0  0  0  0  0  0  0  0  0
    0.4126    3.3311   -1.8508 H   0  0  0  0  0  0  0  0  0  0  0  0
   -0.0210    1.6273   -2.2571 H   0  0  0  0  0  0  0  0  0  0  0  0
    1.6406    1.7651   -0.7057 H   0  0  0  0  0  0  0  0  0  0  0  0
    2.7813    0.6876    2.5363 H   0  0  0  0  0  0  0  0  0  0  0  0
    1.7059    0.3700    1.1683 H   0  0  0  0  0  0  0  0  0  0  0  0
    2.3104    2.0398    1.5014 H   0  0  0  0  0  0  0  0  0  0  0  0
    5.7005    0.4673   -0.7428 H   0  0  0  0  0  0  0  0  0  0  0  0
    7.2447   -0.3661   -1.9717 H   0  0  0  0  0  0  0  0  0  0  0  0
    7.6801   -0.6967   -3.6150 H   0  0  0  0  0  0  0  0  0  0  0  0
    5.5655   -1.8592   -4.0954 H   0  0  0  0  0  0  0  0  0  0  0  0
    5.0378   -1.6387   -2.4309 H   0  0  0  0  0  0  0  0  0  0  0  0
    5.0560   -4.3338   -2.1253 H   0  0  0  0  0  0  0  0  0  0  0  0
    7.1526    0.3419   -5.7391 H   0  0  0  0  0  0  0  0  0  0  0  0
    9.4636    0.8205   -6.3399 H   0  0  0  0  0  0  0  0  0  0  0  0
   12.8306    3.2735   -4.9601 H   0  0  0  0  0  0  0  0  0  0  0  0
   11.1994    6.9735   -5.5730 H   0  0  0  0  0  0  0  0  0  0  0  0
   15.0301    8.5959   -3.6839 H   0  0  0  0  0  0  0  0  0  0  0  0
   15.8278    7.0158   -3.3981 H   0  0  0  0  0  0  0  0  0  0  0  0
   14.7194    7.7072   -2.1672 H   0  0  0  0  0  0  0  0  0  0  0  0
   13.9196    5.0030   -2.8858 H   0  0  0  0  0  0  0  0  0  0  0  0
    7.3931    3.3051   -2.6224 H   0  0  0  0  0  0  0  0  0  0  0  0
    3.8989    1.9773   -4.3572 H   0  0  0  0  0  0  0  0  0  0  0  0
  1  2  1  0  0  0  0
  1 35  1  0  0  0  0
  1 36  1  0  0  0  0
  1 37  1  0  0  0  0
  2  3  1  0  0  0  0
  3  4  1  0  0  0  0
  3 34  2  0  0  0  0
  4  5  2  0  0  0  0
  4 38  1  0  0  0  0
  5  6  1  0  0  0  0
  5  8  1  0  0  0  0
  6  7  1  0  0  0  0
  7 39  1  0  0  0  0
  7 40  1  0  0  0  0
  7 41  1  0  0  0  0
  8  9  2  0  0  0  0
  8 42  1  0  0  0  0
  9 10  1  0  0  0  0
  9 34  1  0  0  0  0
 10 11  1  0  0  0  0
 10 18  1  0  0  0  0
 11 12  1  0  0  0  0
 11 43  1  0  0  0  0
 11 44  1  0  0  0  0
 12 13  1  0  0  0  0
 12 45  1  0  0  0  0
 12 46  1  0  0  0  0
 13 14  2  0  0  0  0
 13 17  1  0  0  0  0
 14 15  1  0  0  0  0
 15 16  2  0  0  0  0
 16 17  1  0  0  0  0
 17 47  1  0  0  0  0
 18 19  1  0  0  0  0
 18 33  2  0  0  0  0
 19 20  2  0  0  0  0
 19 48  1  0  0  0  0
 20 21  1  0  0  0  0
 20 49  1  0  0  0  0
 21 22  1  0  0  0  0
 21 32  2  0  0  0  0
 22 23  2  0  0  0  0
 23 24  1  0  0  0  0
 23 50  1  0  0  0  0
 24 25  1  0  0  0  0
 24 31  2  0  0  0  0
 25 26  1  0  0  0  0
 25 30  2  0  0  0  0
 26 27  2  0  0  0  0
 26 51  1  0  0  0  0
 27 28  1  0  0  0  0
 28 29  1  0  0  0  0
 28 30  1  0  0  0  0
 29 52  1  0  0  0  0
 29 53  1  0  0  0  0
 29 54  1  0  0  0  0
 30 55  1  0  0  0  0
 31 32  1  0  0  0  0
 32 33  1  0  0  0  0
 33 56  1  0  0  0  0
 34 57  1  0  0  0  0
M  END
$$$$
