CHEMBL3933398
 OpenBabel04072215373D

 62 66  0  0  1  0  0  0  0  0999 V2000
    1.0837    0.4703   -0.1967 C   0  0  0  0  0  0  0  0  0  0  0  0
    2.4832    0.2318   -0.1073 O   0  0  0  0  0  0  0  0  0  0  0  0
    3.0315   -0.5787   -1.0644 C   0  0  0  0  0  0  0  0  0  0  0  0
    4.0338   -1.4304   -0.5783 C   0  0  0  0  0  0  0  0  0  0  0  0
    4.7332   -2.3198   -1.4371 C   0  0  0  0  0  0  0  0  0  0  0  0
    5.7557   -3.2085   -1.0780 C   0  0  0  0  0  0  0  0  0  0  0  0
    6.1566   -3.2985    0.2793 N   0  0  0  0  0  0  0  0  0  0  0  0
    7.3471   -3.9231    0.6981 C   0  0  0  0  0  0  0  0  0  0  0  0
    8.5645   -3.6390    0.0630 C   0  0  0  0  0  0  0  0  0  0  0  0
    9.7385   -4.2882    0.4357 C   0  0  0  0  0  0  0  0  0  0  0  0
    9.7177   -5.2311    1.4649 C   0  0  0  0  0  0  0  0  0  0  0  0
   11.1964   -6.0201    1.8626 Cl  0  0  0  0  0  0  0  0  0  0  0  0
    8.5115   -5.5048    2.1232 C   0  0  0  0  0  0  0  0  0  0  0  0
    8.4049   -6.6628    3.4031 Cl  0  0  0  0  0  0  0  0  0  0  0  0
    7.3351   -4.8497    1.7473 C   0  0  0  0  0  0  0  0  0  0  0  0
    6.3896   -3.9858   -1.9857 N   0  0  0  0  0  0  0  0  0  0  0  0
    5.9919   -3.8958   -3.2508 C   0  0  0  0  0  0  0  0  0  0  0  0
    5.0229   -3.1097   -3.6993 N   0  0  0  0  0  0  0  0  0  0  0  0
    4.4226   -2.3457   -2.7884 C   0  0  0  0  0  0  0  0  0  0  0  0
    3.4486   -1.4886   -3.2547 C   0  0  0  0  0  0  0  0  0  0  0  0
    2.7500   -0.5809   -2.4345 C   0  0  0  0  0  0  0  0  0  0  0  0
    1.8438    0.3189   -2.9669 O   0  0  0  0  0  0  0  0  0  0  0  0
    1.7489    0.2281   -4.3938 C   0  0  0  0  0  0  0  0  0  0  0  0
    0.8791    1.2794   -5.0481 C   0  0  3  0  0  0  0  0  0  0  0  0
   -0.5367    1.3064   -4.4680 C   0  0  0  0  0  0  0  0  0  0  0  0
   -1.3754    2.3106   -5.1991 N   0  0  0  0  0  0  0  0  0  0  0  0
   -1.0798    3.9692   -4.8667 S   0  0  0  0  0  0  0  0  0  0  0  0
    0.3423    4.2287   -4.9899 O   0  0  0  0  0  0  0  0  0  0  0  0
   -2.0296    4.7297   -5.6388 O   0  0  0  0  0  0  0  0  0  0  0  0
   -1.5298    4.1470   -3.1612 C   0  0  0  0  0  0  0  0  0  0  0  0
   -0.5700    4.4924   -2.2090 C   0  0  0  0  0  0  0  0  0  0  0  0
   -0.9738    4.7685   -0.9001 C   0  0  0  0  0  0  0  0  0  0  0  0
   -2.3253    4.7050   -0.5572 C   0  0  0  0  0  0  0  0  0  0  0  0
   -3.2781    4.3444   -1.5117 C   0  0  0  0  0  0  0  0  0  0  0  0
   -2.8855    4.0654   -2.8194 C   0  0  0  0  0  0  0  0  0  0  0  0
   -1.3673    1.9754   -6.6643 C   0  0  0  0  0  0  0  0  0  0  0  0
    0.0616    1.8730   -7.2077 C   0  0  0  0  0  0  0  0  0  0  0  0
    0.8397    0.9379   -6.4542 O   0  0  0  0  0  0  0  0  0  0  0  0
    0.6753    0.4080    0.8187 H   0  0  0  0  0  0  0  0  0  0  0  0
    0.5458   -0.2615   -0.8070 H   0  0  0  0  0  0  0  0  0  0  0  0
    0.9114    1.4859   -0.5635 H   0  0  0  0  0  0  0  0  0  0  0  0
    4.2868   -1.3810    0.4810 H   0  0  0  0  0  0  0  0  0  0  0  0
    5.3508   -3.5443    0.8490 H   0  0  0  0  0  0  0  0  0  0  0  0
    8.5957   -2.9159   -0.7491 H   0  0  0  0  0  0  0  0  0  0  0  0
   10.6655   -4.0577   -0.0897 H   0  0  0  0  0  0  0  0  0  0  0  0
    6.4035   -5.0865    2.2521 H   0  0  0  0  0  0  0  0  0  0  0  0
    6.4991   -4.5145   -3.9816 H   0  0  0  0  0  0  0  0  0  0  0  0
    3.2806   -1.5575   -4.3223 H   0  0  0  0  0  0  0  0  0  0  0  0
    1.3563   -0.7591   -4.6747 H   0  0  0  0  0  0  0  0  0  0  0  0
    2.7449    0.3656   -4.8403 H   0  0  0  0  0  0  0  0  0  0  0  0
    1.3901    2.2350   -4.9292 H   0  0  0  0  0  0  0  0  0  0  0  0
   -0.5515    1.4977   -3.3913 H   0  0  0  0  0  0  0  0  0  0  0  0
   -1.0118    0.3273   -4.6175 H   0  0  0  0  0  0  0  0  0  0  0  0
    0.4824    4.5832   -2.4738 H   0  0  0  0  0  0  0  0  0  0  0  0
   -0.2394    5.0678   -0.1537 H   0  0  0  0  0  0  0  0  0  0  0  0
   -2.6409    4.9507    0.4540 H   0  0  0  0  0  0  0  0  0  0  0  0
   -4.3311    4.3149   -1.2473 H   0  0  0  0  0  0  0  0  0  0  0  0
   -3.6266    3.8185   -3.5725 H   0  0  0  0  0  0  0  0  0  0  0  0
   -1.9520    2.7001   -7.2373 H   0  0  0  0  0  0  0  0  0  0  0  0
   -1.8710    1.0067   -6.7796 H   0  0  0  0  0  0  0  0  0  0  0  0
    0.5746    2.8397   -7.2157 H   0  0  0  0  0  0  0  0  0  0  0  0
    0.0360    1.5091   -8.2406 H   0  0  0  0  0  0  0  0  0  0  0  0
  1  2  1  0  0  0  0
  1 39  1  0  0  0  0
  1 40  1  0  0  0  0
  1 41  1  0  0  0  0
  2  3  1  0  0  0  0
  3  4  1  0  0  0  0
  3 21  2  0  0  0  0
  4  5  2  0  0  0  0
  4 42  1  0  0  0  0
  5  6  1  0  0  0  0
  5 19  1  0  0  0  0
  6  7  1  0  0  0  0
  6 16  2  0  0  0  0
  7  8  1  0  0  0  0
  7 43  1  0  0  0  0
  8  9  1  0  0  0  0
  8 15  2  0  0  0  0
  9 10  2  0  0  0  0
  9 44  1  0  0  0  0
 10 11  1  0  0  0  0
 10 45  1  0  0  0  0
 11 12  1  0  0  0  0
 11 13  2  0  0  0  0
 13 14  1  0  0  0  0
 13 15  1  0  0  0  0
 15 46  1  0  0  0  0
 16 17  1  0  0  0  0
 17 18  2  0  0  0  0
 17 47  1  0  0  0  0
 18 19  1  0  0  0  0
 19 20  2  0  0  0  0
 20 21  1  0  0  0  0
 20 48  1  0  0  0  0
 21 22  1  0  0  0  0
 22 23  1  0  0  0  0
 23 24  1  0  0  0  0
 23 49  1  0  0  0  0
 23 50  1  0  0  0  0
 24 25  1  0  0  0  0
 24 38  1  0  0  0  0
 24 51  1  0  0  0  0
 25 26  1  0  0  0  0
 25 52  1  0  0  0  0
 25 53  1  0  0  0  0
 26 27  1  0  0  0  0
 26 36  1  0  0  0  0
 27 28  2  0  0  0  0
 27 29  2  0  0  0  0
 27 30  1  0  0  0  0
 30 31  1  0  0  0  0
 30 35  2  0  0  0  0
 31 32  2  0  0  0  0
 31 54  1  0  0  0  0
 32 33  1  0  0  0  0
 32 55  1  0  0  0  0
 33 34  2  0  0  0  0
 33 56  1  0  0  0  0
 34 35  1  0  0  0  0
 34 57  1  0  0  0  0
 35 58  1  0  0  0  0
 36 37  1  0  0  0  0
 36 59  1  0  0  0  0
 36 60  1  0  0  0  0
 37 38  1  0  0  0  0
 37 61  1  0  0  0  0
 37 62  1  0  0  0  0
M  END
$$$$
