CHEMBL3950267
 OpenBabel04072215373D

 49 52  0  0  0  0  0  0  0  0999 V2000
    2.4425   -0.7802    2.2805 C   0  0  0  0  0  0  0  0  0  0  0  0
    0.9454   -0.6789    2.3172 C   0  0  0  0  0  0  0  0  0  0  0  0
    0.3459    0.3923    2.9933 C   0  0  0  0  0  0  0  0  0  0  0  0
   -1.0361    0.4955    3.0297 C   0  0  0  0  0  0  0  0  0  0  0  0
   -1.8274   -0.4560    2.4076 C   0  0  0  0  0  0  0  0  0  0  0  0
   -1.2663   -1.5428    1.7193 C   0  0  0  0  0  0  0  0  0  0  0  0
   -2.0557   -2.5434    1.0814 N   0  0  0  0  0  0  0  0  0  0  0  0
   -3.4324   -2.4855    0.9521 C   0  0  0  0  0  0  0  0  0  0  0  0
   -4.1220   -1.5247    1.2914 O   0  0  0  0  0  0  0  0  0  0  0  0
   -3.9955   -3.6145    0.4088 N   0  0  0  0  0  0  0  0  0  0  0  0
   -5.3986   -3.6456    0.1606 C   0  0  0  0  0  0  0  0  0  0  0  0
   -6.0459   -2.5507   -0.4263 C   0  0  0  0  0  0  0  0  0  0  0  0
   -7.4138   -2.5806   -0.7194 C   0  0  0  0  0  0  0  0  0  0  0  0
   -8.1616   -3.7282   -0.4540 C   0  0  0  0  0  0  0  0  0  0  0  0
   -9.4417   -3.9833   -1.2380 C   0  0  0  0  0  0  0  0  0  0  0  0
   -9.7162   -5.3489   -1.4892 N   0  0  0  0  0  0  0  0  0  0  0  0
   -8.9047   -5.6460   -2.5769 C   0  0  0  0  0  0  0  0  0  0  0  0
   -8.1537   -6.7751   -2.9009 C   0  0  0  0  0  0  0  0  0  0  0  0
   -7.3323   -6.6620   -4.0270 C   0  0  0  0  0  0  0  0  0  0  0  0
   -7.3589   -5.5242   -4.8399 C   0  0  0  0  0  0  0  0  0  0  0  0
   -8.1900   -4.4394   -4.5382 C   0  0  0  0  0  0  0  0  0  0  0  0
   -8.9096   -4.4782   -3.3341 C   0  0  0  0  0  0  0  0  0  0  0  0
   -9.6755   -3.5348   -2.5694 C   0  0  0  0  0  0  0  0  0  0  0  0
  -10.2625   -2.3064   -3.0767 C   0  0  0  0  0  0  0  0  0  0  0  0
  -10.8767   -1.4915   -2.1755 N   0  0  0  0  0  0  0  0  0  0  0  0
  -10.2929   -2.0164   -4.2679 O   0  0  0  0  0  0  0  0  0  0  0  0
   -7.5272   -4.7782    0.2513 C   0  0  0  0  0  0  0  0  0  0  0  0
   -6.1480   -4.7621    0.5118 C   0  0  0  0  0  0  0  0  0  0  0  0
    0.1309   -1.6418    1.6784 C   0  0  0  0  0  0  0  0  0  0  0  0
    2.9055    0.0247    2.8670 H   0  0  0  0  0  0  0  0  0  0  0  0
    2.8012   -0.6903    1.2506 H   0  0  0  0  0  0  0  0  0  0  0  0
    2.7690   -1.7316    2.7081 H   0  0  0  0  0  0  0  0  0  0  0  0
    0.9444    1.1490    3.4914 H   0  0  0  0  0  0  0  0  0  0  0  0
   -1.5128    1.3267    3.5490 H   0  0  0  0  0  0  0  0  0  0  0  0
   -2.8944   -0.3132    2.4904 H   0  0  0  0  0  0  0  0  0  0  0  0
   -1.5516   -3.2705    0.5877 H   0  0  0  0  0  0  0  0  0  0  0  0
   -3.5533   -4.4932    0.6524 H   0  0  0  0  0  0  0  0  0  0  0  0
   -5.4774   -1.6704   -0.7193 H   0  0  0  0  0  0  0  0  0  0  0  0
   -7.8472   -1.7358   -1.2466 H   0  0  0  0  0  0  0  0  0  0  0  0
   -9.8625   -6.0090   -0.7460 H   0  0  0  0  0  0  0  0  0  0  0  0
   -8.1264   -7.6498   -2.2628 H   0  0  0  0  0  0  0  0  0  0  0  0
   -6.6494   -7.4729   -4.2703 H   0  0  0  0  0  0  0  0  0  0  0  0
   -6.7008   -5.4606   -5.7022 H   0  0  0  0  0  0  0  0  0  0  0  0
   -8.1759   -3.5395   -5.1469 H   0  0  0  0  0  0  0  0  0  0  0  0
  -10.9811   -1.7447   -1.2015 H   0  0  0  0  0  0  0  0  0  0  0  0
  -11.4187   -0.7331   -2.5572 H   0  0  0  0  0  0  0  0  0  0  0  0
   -8.0694   -5.6816    0.5155 H   0  0  0  0  0  0  0  0  0  0  0  0
   -5.6881   -5.6208    0.9889 H   0  0  0  0  0  0  0  0  0  0  0  0
    0.6101   -2.4641    1.1537 H   0  0  0  0  0  0  0  0  0  0  0  0
  1  2  1  0  0  0  0
  1 30  1  0  0  0  0
  1 31  1  0  0  0  0
  1 32  1  0  0  0  0
  2  3  1  0  0  0  0
  2 29  2  0  0  0  0
  3  4  2  0  0  0  0
  3 33  1  0  0  0  0
  4  5  1  0  0  0  0
  4 34  1  0  0  0  0
  5  6  2  0  0  0  0
  5 35  1  0  0  0  0
  6  7  1  0  0  0  0
  6 29  1  0  0  0  0
  7  8  1  0  0  0  0
  7 36  1  0  0  0  0
  8  9  2  0  0  0  0
  8 10  1  0  0  0  0
 10 11  1  0  0  0  0
 10 37  1  0  0  0  0
 11 12  1  0  0  0  0
 11 28  2  0  0  0  0
 12 13  2  0  0  0  0
 12 38  1  0  0  0  0
 13 14  1  0  0  0  0
 13 39  1  0  0  0  0
 14 15  1  0  0  0  0
 14 27  2  0  0  0  0
 15 16  1  0  0  0  0
 15 23  2  0  0  0  0
 16 17  1  0  0  0  0
 16 40  1  0  0  0  0
 17 18  1  0  0  0  0
 17 22  2  0  0  0  0
 18 19  2  0  0  0  0
 18 41  1  0  0  0  0
 19 20  1  0  0  0  0
 19 42  1  0  0  0  0
 20 21  2  0  0  0  0
 20 43  1  0  0  0  0
 21 22  1  0  0  0  0
 21 44  1  0  0  0  0
 22 23  1  0  0  0  0
 23 24  1  0  0  0  0
 24 25  1  0  0  0  0
 24 26  2  0  0  0  0
 25 45  1  0  0  0  0
 25 46  1  0  0  0  0
 27 28  1  0  0  0  0
 27 47  1  0  0  0  0
 28 48  1  0  0  0  0
 29 49  1  0  0  0  0
M  END
$$$$
