CHEMBL4241470
 OpenBabel04072215383D

 51 55  0  0  0  0  0  0  0  0999 V2000
    1.3483   -0.1449   -1.8005 N   0  0  0  0  0  0  0  0  0  0  0  0
    2.6412   -0.3175   -1.4584 C   0  0  0  0  0  0  0  0  0  0  0  0
    3.4779    0.7002   -1.8149 O   0  0  0  0  0  0  0  0  0  0  0  0
    4.7592    0.4546   -1.3565 N   0  0  0  0  0  0  0  0  0  0  0  0
    4.6951   -0.7286   -0.7419 C   0  0  0  0  0  0  0  0  0  0  0  0
    5.7234   -1.3549   -0.1134 N   0  0  0  0  0  0  0  0  0  0  0  0
    5.3788   -2.5558    0.4285 C   0  0  0  0  0  0  0  0  0  0  0  0
    6.4768   -3.2763    1.1179 C   0  0  0  0  0  0  0  0  0  0  0  0
    7.4800   -2.5775    1.8132 C   0  0  0  0  0  0  0  0  0  0  0  0
    8.5267   -3.2509    2.4520 C   0  0  0  0  0  0  0  0  0  0  0  0
    8.5920   -4.6409    2.4108 C   0  0  0  0  0  0  0  0  0  0  0  0
    7.6090   -5.3582    1.7389 C   0  0  0  0  0  0  0  0  0  0  0  0
    6.5660   -4.6829    1.0992 C   0  0  0  0  0  0  0  0  0  0  0  0
    4.0768   -3.1206    0.3703 C   0  0  0  0  0  0  0  0  0  0  0  0
    2.9648   -2.5105   -0.2592 C   0  0  0  0  0  0  0  0  0  0  0  0
    1.6297   -3.1102   -0.2234 C   0  0  0  0  0  0  0  0  0  0  0  0
    1.2084   -3.7489    0.9529 C   0  0  0  0  0  0  0  0  0  0  0  0
   -0.0466   -4.3428    1.0562 C   0  0  0  0  0  0  0  0  0  0  0  0
   -0.9591   -4.2695    0.0081 C   0  0  0  0  0  0  0  0  0  0  0  0
   -2.2681   -4.7805    0.1236 N   0  0  0  0  0  0  0  0  0  0  0  0
   -2.9072   -4.9883    1.3352 C   0  0  0  0  0  0  0  0  0  0  0  0
   -2.4844   -4.6128    2.4213 O   0  0  0  0  0  0  0  0  0  0  0  0
   -4.0766   -5.7115    1.1778 N   0  0  0  0  0  0  0  0  0  0  0  0
   -4.9278   -5.9817    2.2697 C   0  0  0  0  0  0  0  0  0  0  0  0
   -5.1840   -5.0118    3.2535 C   0  0  0  0  0  0  0  0  0  0  0  0
   -6.0116   -5.3037    4.3391 C   0  0  0  0  0  0  0  0  0  0  0  0
   -6.5837   -6.5687    4.4533 C   0  0  0  0  0  0  0  0  0  0  0  0
   -6.3337   -7.5274    3.4704 C   0  0  0  0  0  0  0  0  0  0  0  0
   -7.0036   -9.1049    3.6368 Cl  0  0  0  0  0  0  0  0  0  0  0  0
   -5.5264   -7.2336    2.3693 C   0  0  0  0  0  0  0  0  0  0  0  0
   -0.5456   -3.6876   -1.1939 C   0  0  0  0  0  0  0  0  0  0  0  0
    0.7437   -3.1377   -1.3106 C   0  0  0  0  0  0  0  0  0  0  0  0
    3.3693   -1.2835   -0.8042 C   0  0  0  0  0  0  0  0  0  0  0  0
    1.0780    0.7786   -2.1294 H   0  0  0  0  0  0  0  0  0  0  0  0
    0.6296   -0.5783   -1.2274 H   0  0  0  0  0  0  0  0  0  0  0  0
    7.4516   -1.4891    1.8596 H   0  0  0  0  0  0  0  0  0  0  0  0
    9.2941   -2.6856    2.9749 H   0  0  0  0  0  0  0  0  0  0  0  0
    9.4122   -5.1634    2.8956 H   0  0  0  0  0  0  0  0  0  0  0  0
    7.6558   -6.4440    1.7004 H   0  0  0  0  0  0  0  0  0  0  0  0
    5.8308   -5.2794    0.5634 H   0  0  0  0  0  0  0  0  0  0  0  0
    3.9202   -4.0809    0.8613 H   0  0  0  0  0  0  0  0  0  0  0  0
    1.8510   -3.7958    1.8304 H   0  0  0  0  0  0  0  0  0  0  0  0
   -0.2822   -4.8543    1.9850 H   0  0  0  0  0  0  0  0  0  0  0  0
   -2.8711   -4.7058   -0.6819 H   0  0  0  0  0  0  0  0  0  0  0  0
   -4.0395   -6.4043    0.4430 H   0  0  0  0  0  0  0  0  0  0  0  0
   -4.7385   -4.0208    3.1900 H   0  0  0  0  0  0  0  0  0  0  0  0
   -6.1932   -4.5474    5.0980 H   0  0  0  0  0  0  0  0  0  0  0  0
   -7.2119   -6.8012    5.3061 H   0  0  0  0  0  0  0  0  0  0  0  0
   -5.3246   -8.0046    1.6329 H   0  0  0  0  0  0  0  0  0  0  0  0
   -1.2164   -3.6330   -2.0483 H   0  0  0  0  0  0  0  0  0  0  0  0
    1.0414   -2.7168   -2.2708 H   0  0  0  0  0  0  0  0  0  0  0  0
  1  2  1  0  0  0  0
  1 34  1  0  0  0  0
  1 35  1  0  0  0  0
  2  3  1  0  0  0  0
  2 33  2  0  0  0  0
  3  4  1  0  0  0  0
  4  5  2  0  0  0  0
  5  6  1  0  0  0  0
  5 33  1  0  0  0  0
  6  7  2  0  0  0  0
  7  8  1  0  0  0  0
  7 14  1  0  0  0  0
  8  9  1  0  0  0  0
  8 13  2  0  0  0  0
  9 10  2  0  0  0  0
  9 36  1  0  0  0  0
 10 11  1  0  0  0  0
 10 37  1  0  0  0  0
 11 12  2  0  0  0  0
 11 38  1  0  0  0  0
 12 13  1  0  0  0  0
 12 39  1  0  0  0  0
 13 40  1  0  0  0  0
 14 15  2  0  0  0  0
 14 41  1  0  0  0  0
 15 16  1  0  0  0  0
 15 33  1  0  0  0  0
 16 17  1  0  0  0  0
 16 32  2  0  0  0  0
 17 18  2  0  0  0  0
 17 42  1  0  0  0  0
 18 19  1  0  0  0  0
 18 43  1  0  0  0  0
 19 20  1  0  0  0  0
 19 31  2  0  0  0  0
 20 21  1  0  0  0  0
 20 44  1  0  0  0  0
 21 22  2  0  0  0  0
 21 23  1  0  0  0  0
 23 24  1  0  0  0  0
 23 45  1  0  0  0  0
 24 25  1  0  0  0  0
 24 30  2  0  0  0  0
 25 26  2  0  0  0  0
 25 46  1  0  0  0  0
 26 27  1  0  0  0  0
 26 47  1  0  0  0  0
 27 28  2  0  0  0  0
 27 48  1  0  0  0  0
 28 29  1  0  0  0  0
 28 30  1  0  0  0  0
 30 49  1  0  0  0  0
 31 32  1  0  0  0  0
 31 50  1  0  0  0  0
 32 51  1  0  0  0  0
M  END
$$$$
