CHEMBL25610
 OpenBabel04072215363D

 52 55  0  0  0  0  0  0  0  0999 V2000
    3.5646    1.1776    0.1227 C   0  0  0  0  0  0  0  0  0  0  0  0
    2.6746    0.0610    0.0141 O   0  0  0  0  0  0  0  0  0  0  0  0
    3.2977   -1.1523   -0.0947 C   0  0  0  0  0  0  0  0  0  0  0  0
    4.3275   -1.4800    0.7836 C   0  0  0  0  0  0  0  0  0  0  0  0
    4.9771   -2.7303    0.7193 C   0  0  0  0  0  0  0  0  0  0  0  0
    6.0679   -3.0735    1.5280 C   0  0  0  0  0  0  0  0  0  0  0  0
    6.4867   -2.1547    2.5153 N   0  0  0  0  0  0  0  0  0  0  0  0
    7.7795   -1.8591    2.9693 C   0  0  0  0  0  0  0  0  0  0  0  0
    8.9146   -2.0774    2.1824 C   0  0  0  0  0  0  0  0  0  0  0  0
   10.1683   -1.6136    2.6027 C   0  0  0  0  0  0  0  0  0  0  0  0
   10.2901   -0.9367    3.8157 C   0  0  0  0  0  0  0  0  0  0  0  0
   11.8221   -0.3192    4.2946 Cl  0  0  0  0  0  0  0  0  0  0  0  0
    9.1800   -0.7289    4.6246 C   0  0  0  0  0  0  0  0  0  0  0  0
    7.9400   -1.1843    4.1909 C   0  0  0  0  0  0  0  0  0  0  0  0
    6.8592   -0.9428    4.9506 F   0  0  0  0  0  0  0  0  0  0  0  0
    6.7234   -4.2362    1.3874 N   0  0  0  0  0  0  0  0  0  0  0  0
    6.2394   -5.0800    0.4686 C   0  0  0  0  0  0  0  0  0  0  0  0
    5.1859   -4.8654   -0.3334 N   0  0  0  0  0  0  0  0  0  0  0  0
    4.5683   -3.6832   -0.2156 C   0  0  0  0  0  0  0  0  0  0  0  0
    3.4952   -3.3671   -1.0455 C   0  0  0  0  0  0  0  0  0  0  0  0
    2.8639   -2.1102   -1.0158 C   0  0  0  0  0  0  0  0  0  0  0  0
    1.8261   -1.9818   -1.9040 O   0  0  0  0  0  0  0  0  0  0  0  0
    1.6563   -0.7079   -2.5373 C   0  0  0  0  0  0  0  0  0  0  0  0
    2.0204   -0.8193   -4.0230 C   0  0  0  0  0  0  0  0  0  0  0  0
    2.0664    0.4692   -4.7522 N   0  0  0  0  0  0  0  0  0  0  0  0
    2.4315    0.2404   -6.1717 C   0  0  0  0  0  0  0  0  0  0  0  0
    3.8941   -0.2100   -6.3560 C   0  0  0  0  0  0  0  0  0  0  0  0
    4.8115    0.7332   -5.7855 O   0  0  0  0  0  0  0  0  0  0  0  0
    4.5177    0.9905   -4.4066 C   0  0  0  0  0  0  0  0  0  0  0  0
    3.0579    1.4330   -4.2159 C   0  0  0  0  0  0  0  0  0  0  0  0
    3.2375    1.9446   -0.5861 H   0  0  0  0  0  0  0  0  0  0  0  0
    4.6097    0.9439   -0.1157 H   0  0  0  0  0  0  0  0  0  0  0  0
    3.4962    1.5877    1.1339 H   0  0  0  0  0  0  0  0  0  0  0  0
    4.6460   -0.7476    1.5213 H   0  0  0  0  0  0  0  0  0  0  0  0
    5.7583   -1.9825    3.2070 H   0  0  0  0  0  0  0  0  0  0  0  0
    8.8324   -2.5729    1.2201 H   0  0  0  0  0  0  0  0  0  0  0  0
   11.0342   -1.7717    1.9669 H   0  0  0  0  0  0  0  0  0  0  0  0
    9.2575   -0.2034    5.5703 H   0  0  0  0  0  0  0  0  0  0  0  0
    6.7509   -6.0309    0.3617 H   0  0  0  0  0  0  0  0  0  0  0  0
    3.1503   -4.1162   -1.7552 H   0  0  0  0  0  0  0  0  0  0  0  0
    2.2824    0.0601   -2.1030 H   0  0  0  0  0  0  0  0  0  0  0  0
    0.6124   -0.4022   -2.4169 H   0  0  0  0  0  0  0  0  0  0  0  0
    1.2742   -1.4706   -4.4976 H   0  0  0  0  0  0  0  0  0  0  0  0
    2.9676   -1.3648   -4.0943 H   0  0  0  0  0  0  0  0  0  0  0  0
    2.2909    1.1894   -6.7069 H   0  0  0  0  0  0  0  0  0  0  0  0
    1.7432   -0.4757   -6.6339 H   0  0  0  0  0  0  0  0  0  0  0  0
    4.1218   -0.2873   -7.4228 H   0  0  0  0  0  0  0  0  0  0  0  0
    4.0763   -1.1980   -5.9190 H   0  0  0  0  0  0  0  0  0  0  0  0
    5.1860    1.7929   -4.0767 H   0  0  0  0  0  0  0  0  0  0  0  0
    4.7551    0.1035   -3.8078 H   0  0  0  0  0  0  0  0  0  0  0  0
    2.9131    2.3810   -4.7503 H   0  0  0  0  0  0  0  0  0  0  0  0
    2.8658    1.6773   -3.1666 H   0  0  0  0  0  0  0  0  0  0  0  0
  1  2  1  0  0  0  0
  1 31  1  0  0  0  0
  1 32  1  0  0  0  0
  1 33  1  0  0  0  0
  2  3  1  0  0  0  0
  3  4  1  0  0  0  0
  3 21  2  0  0  0  0
  4  5  2  0  0  0  0
  4 34  1  0  0  0  0
  5  6  1  0  0  0  0
  5 19  1  0  0  0  0
  6  7  1  0  0  0  0
  6 16  2  0  0  0  0
  7  8  1  0  0  0  0
  7 35  1  0  0  0  0
  8  9  1  0  0  0  0
  8 14  2  0  0  0  0
  9 10  2  0  0  0  0
  9 36  1  0  0  0  0
 10 11  1  0  0  0  0
 10 37  1  0  0  0  0
 11 12  1  0  0  0  0
 11 13  2  0  0  0  0
 13 14  1  0  0  0  0
 13 38  1  0  0  0  0
 14 15  1  0  0  0  0
 16 17  1  0  0  0  0
 17 18  2  0  0  0  0
 17 39  1  0  0  0  0
 18 19  1  0  0  0  0
 19 20  2  0  0  0  0
 20 21  1  0  0  0  0
 20 40  1  0  0  0  0
 21 22  1  0  0  0  0
 22 23  1  0  0  0  0
 23 24  1  0  0  0  0
 23 41  1  0  0  0  0
 23 42  1  0  0  0  0
 24 25  1  0  0  0  0
 24 43  1  0  0  0  0
 24 44  1  0  0  0  0
 25 26  1  0  0  0  0
 25 30  1  0  0  0  0
 26 27  1  0  0  0  0
 26 45  1  0  0  0  0
 26 46  1  0  0  0  0
 27 28  1  0  0  0  0
 27 47  1  0  0  0  0
 27 48  1  0  0  0  0
 28 29  1  0  0  0  0
 29 30  1  0  0  0  0
 29 49  1  0  0  0  0
 29 50  1  0  0  0  0
 30 51  1  0  0  0  0
 30 52  1  0  0  0  0
M  END
$$$$
