CHEMBL4096271
 OpenBabel04072215383D

 43 46  0  0  0  0  0  0  0  0999 V2000
   -1.0921    2.2104   -3.3721 C   0  0  0  0  0  0  0  0  0  0  0  0
   -1.3402    1.0408   -2.4840 C   0  0  0  0  0  0  0  0  0  0  0  0
   -1.7406   -0.0938   -3.0801 N   0  0  0  0  0  0  0  0  0  0  0  0
   -1.9017   -0.9520   -2.0709 N   0  0  0  0  0  0  0  0  0  0  0  0
   -1.6174   -0.4298   -0.8513 C   0  0  0  0  0  0  0  0  0  0  0  0
   -1.7277   -1.0960    0.3071 N   0  0  0  0  0  0  0  0  0  0  0  0
   -1.3844   -0.3570    1.3799 C   0  0  0  0  0  0  0  0  0  0  0  0
   -0.9651    0.9644    1.3380 C   0  0  0  0  0  0  0  0  0  0  0  0
   -0.8706    1.6435    0.1043 C   0  0  0  0  0  0  0  0  0  0  0  0
   -0.3946    3.0365    0.0466 C   0  0  0  0  0  0  0  0  0  0  0  0
    0.5215    3.4275   -0.9290 C   0  0  0  0  0  0  0  0  0  0  0  0
    0.9184    4.7559   -1.0761 C   0  0  0  0  0  0  0  0  0  0  0  0
    0.4944    5.7375   -0.1855 C   0  0  0  0  0  0  0  0  0  0  0  0
    0.9159    7.0845   -0.2834 N   0  0  0  0  0  0  0  0  0  0  0  0
    1.5690    7.6359   -1.3731 C   0  0  0  0  0  0  0  0  0  0  0  0
    1.7282    7.0783   -2.4568 O   0  0  0  0  0  0  0  0  0  0  0  0
    2.0798    8.8958   -1.0919 N   0  0  0  0  0  0  0  0  0  0  0  0
    2.8036    9.6064   -2.0812 C   0  0  0  0  0  0  0  0  0  0  0  0
    4.0159   10.2062   -1.7316 C   0  0  0  0  0  0  0  0  0  0  0  0
    4.7955   10.8289   -2.7110 C   0  0  0  0  0  0  0  0  0  0  0  0
    4.3439   10.8953   -4.0301 C   0  0  0  0  0  0  0  0  0  0  0  0
    3.1153   10.3343   -4.3675 C   0  0  0  0  0  0  0  0  0  0  0  0
    2.5478   10.4340   -5.9900 Cl  0  0  0  0  0  0  0  0  0  0  0  0
    2.3490    9.6857   -3.3993 C   0  0  0  0  0  0  0  0  0  0  0  0
   -0.3376    5.3520    0.8700 C   0  0  0  0  0  0  0  0  0  0  0  0
   -0.7897    4.0216    0.9698 C   0  0  0  0  0  0  0  0  0  0  0  0
   -1.2236    0.8918   -1.0613 C   0  0  0  0  0  0  0  0  0  0  0  0
   -1.4197    2.0040   -4.3997 H   0  0  0  0  0  0  0  0  0  0  0  0
   -0.0289    2.4391   -3.4444 H   0  0  0  0  0  0  0  0  0  0  0  0
   -1.6386    3.0906   -3.0239 H   0  0  0  0  0  0  0  0  0  0  0  0
   -2.2142   -1.8929   -2.2582 H   0  0  0  0  0  0  0  0  0  0  0  0
   -1.4538   -0.8791    2.3326 H   0  0  0  0  0  0  0  0  0  0  0  0
   -0.6937    1.4557    2.2694 H   0  0  0  0  0  0  0  0  0  0  0  0
    0.9551    2.6939   -1.6014 H   0  0  0  0  0  0  0  0  0  0  0  0
    1.5822    4.9712   -1.9062 H   0  0  0  0  0  0  0  0  0  0  0  0
    0.5722    7.7321    0.4121 H   0  0  0  0  0  0  0  0  0  0  0  0
    2.3901    9.0108   -0.1375 H   0  0  0  0  0  0  0  0  0  0  0  0
    4.4006   10.1382   -0.7179 H   0  0  0  0  0  0  0  0  0  0  0  0
    5.7653   11.2458   -2.4512 H   0  0  0  0  0  0  0  0  0  0  0  0
    4.9538   11.3780   -4.7891 H   0  0  0  0  0  0  0  0  0  0  0  0
    1.3978    9.2386   -3.6866 H   0  0  0  0  0  0  0  0  0  0  0  0
   -0.6603    6.0700    1.6180 H   0  0  0  0  0  0  0  0  0  0  0  0
   -1.4590    3.7664    1.7904 H   0  0  0  0  0  0  0  0  0  0  0  0
  1  2  1  0  0  0  0
  1 28  1  0  0  0  0
  1 29  1  0  0  0  0
  1 30  1  0  0  0  0
  2  3  2  0  0  0  0
  2 27  1  0  0  0  0
  3  4  1  0  0  0  0
  4  5  1  0  0  0  0
  4 31  1  0  0  0  0
  5  6  1  0  0  0  0
  5 27  2  0  0  0  0
  6  7  2  0  0  0  0
  7  8  1  0  0  0  0
  7 32  1  0  0  0  0
  8  9  2  0  0  0  0
  8 33  1  0  0  0  0
  9 10  1  0  0  0  0
  9 27  1  0  0  0  0
 10 11  1  0  0  0  0
 10 26  2  0  0  0  0
 11 12  2  0  0  0  0
 11 34  1  0  0  0  0
 12 13  1  0  0  0  0
 12 35  1  0  0  0  0
 13 14  1  0  0  0  0
 13 25  2  0  0  0  0
 14 15  1  0  0  0  0
 14 36  1  0  0  0  0
 15 16  2  0  0  0  0
 15 17  1  0  0  0  0
 17 18  1  0  0  0  0
 17 37  1  0  0  0  0
 18 19  1  0  0  0  0
 18 24  2  0  0  0  0
 19 20  2  0  0  0  0
 19 38  1  0  0  0  0
 20 21  1  0  0  0  0
 20 39  1  0  0  0  0
 21 22  2  0  0  0  0
 21 40  1  0  0  0  0
 22 23  1  0  0  0  0
 22 24  1  0  0  0  0
 24 41  1  0  0  0  0
 25 26  1  0  0  0  0
 25 42  1  0  0  0  0
 26 43  1  0  0  0  0
M  END
$$$$
