CHEMBL4742906
 OpenBabel04072215383D

 57 62  0  0  1  0  0  0  0  0999 V2000
   -3.1630   -0.7467    1.2755 C   0  0  0  0  0  0  0  0  0  0  0  0
   -1.9671   -0.1678    0.5826 C   0  0  0  0  0  0  0  0  0  0  0  0
   -1.7863    1.2030    0.4982 C   0  0  0  0  0  0  0  0  0  0  0  0
   -0.6020    1.7204   -0.0412 C   0  0  0  0  0  0  0  0  0  0  0  0
   -0.4148    3.1907   -0.0812 C   0  0  0  0  0  0  0  0  0  0  0  0
    0.1010    3.9861   -1.0970 C   0  0  0  0  0  0  0  0  0  0  0  0
    0.1389    5.3073   -0.7674 N   0  0  0  0  0  0  0  0  0  0  0  0
   -0.4034    5.3769    0.4275 C   0  0  0  0  0  0  0  0  0  0  0  0
   -0.6606    6.5063    1.2525 C   0  0  0  0  0  0  0  0  0  0  0  0
   -1.2994    6.3578    2.4329 C   0  0  0  0  0  0  0  0  0  0  0  0
   -1.5218    7.5527    3.2575 C   0  0  0  0  0  0  0  0  0  0  0  0
   -2.6148    8.3912    3.0232 C   0  0  0  0  0  0  0  0  0  0  0  0
   -2.8224    9.5091    3.8319 C   0  0  0  0  0  0  0  0  0  0  0  0
   -1.9488    9.7982    4.8935 C   0  0  0  0  0  0  0  0  0  0  0  0
   -2.1500   11.0231    5.7646 C   0  0  3  0  0  0  0  0  0  0  0  0
   -3.5269   11.0044    6.4983 C   0  0  0  0  0  0  0  0  0  0  0  0
   -3.7659   12.2115    7.3209 N   0  0  0  0  0  0  0  0  0  0  0  0
   -3.5886   13.4017    6.4674 C   0  0  0  0  0  0  0  0  0  0  0  0
   -2.2152   13.4393    5.7634 C   0  0  0  0  0  0  0  0  0  0  0  0
   -1.9620   12.2423    4.9564 N   0  0  0  0  0  0  0  0  0  0  0  0
   -0.8517    8.9533    5.1162 C   0  0  0  0  0  0  0  0  0  0  0  0
   -0.6407    7.8384    4.3058 C   0  0  0  0  0  0  0  0  0  0  0  0
   -1.7015    5.0292    2.8870 C   0  0  0  0  0  0  0  0  0  0  0  0
   -1.4050    3.9540    2.1416 C   0  0  0  0  0  0  0  0  0  0  0  0
   -0.7743    4.1165    0.9025 N   0  0  0  0  0  0  0  0  0  0  0  0
    0.3491    0.8020   -0.5842 C   0  0  0  0  0  0  0  0  0  0  0  0
    1.5909    1.1482   -1.1814 C   0  0  0  0  0  0  0  0  0  0  0  0
    2.4139    0.1961   -1.7847 C   0  0  0  0  0  0  0  0  0  0  0  0
    2.0416   -1.1376   -1.7633 C   0  0  0  0  0  0  0  0  0  0  0  0
    0.8626   -1.5058   -1.1166 C   0  0  0  0  0  0  0  0  0  0  0  0
    0.0190   -0.5736   -0.5298 C   0  0  0  0  0  0  0  0  0  0  0  0
   -1.0860   -1.0416    0.0623 N   0  0  0  0  0  0  0  0  0  0  0  0
   -3.7853    0.0303    1.7301 H   0  0  0  0  0  0  0  0  0  0  0  0
   -2.8363   -1.4222    2.0730 H   0  0  0  0  0  0  0  0  0  0  0  0
   -3.7734   -1.3062    0.5612 H   0  0  0  0  0  0  0  0  0  0  0  0
   -2.5789    1.8536    0.8506 H   0  0  0  0  0  0  0  0  0  0  0  0
    0.4620    3.6638   -2.0661 H   0  0  0  0  0  0  0  0  0  0  0  0
   -0.3213    7.4742    0.8980 H   0  0  0  0  0  0  0  0  0  0  0  0
   -3.3061    8.1849    2.2092 H   0  0  0  0  0  0  0  0  0  0  0  0
   -3.6630   10.1683    3.6205 H   0  0  0  0  0  0  0  0  0  0  0  0
   -1.3734   11.0202    6.5433 H   0  0  0  0  0  0  0  0  0  0  0  0
   -3.5816   10.1253    7.1522 H   0  0  0  0  0  0  0  0  0  0  0  0
   -4.3538   10.9052    5.7842 H   0  0  0  0  0  0  0  0  0  0  0  0
   -3.0578   12.2386    8.0535 H   0  0  0  0  0  0  0  0  0  0  0  0
   -3.6991   14.2965    7.0891 H   0  0  0  0  0  0  0  0  0  0  0  0
   -4.3915   13.4344    5.7204 H   0  0  0  0  0  0  0  0  0  0  0  0
   -1.4200   13.5511    6.5111 H   0  0  0  0  0  0  0  0  0  0  0  0
   -2.1699   14.3180    5.1116 H   0  0  0  0  0  0  0  0  0  0  0  0
   -1.0111   12.2567    4.5920 H   0  0  0  0  0  0  0  0  0  0  0  0
   -0.1467    9.1600    5.9184 H   0  0  0  0  0  0  0  0  0  0  0  0
    0.2176    7.1964    4.4922 H   0  0  0  0  0  0  0  0  0  0  0  0
   -2.2229    4.9403    3.8354 H   0  0  0  0  0  0  0  0  0  0  0  0
   -1.6563    2.9588    2.4750 H   0  0  0  0  0  0  0  0  0  0  0  0
    1.9423    2.1758   -1.1922 H   0  0  0  0  0  0  0  0  0  0  0  0
    3.3361    0.5003   -2.2729 H   0  0  0  0  0  0  0  0  0  0  0  0
    2.6635   -1.8920   -2.2363 H   0  0  0  0  0  0  0  0  0  0  0  0
    0.5835   -2.5575   -1.0839 H   0  0  0  0  0  0  0  0  0  0  0  0
  1  2  1  0  0  0  0
  1 33  1  0  0  0  0
  1 34  1  0  0  0  0
  1 35  1  0  0  0  0
  2  3  1  0  0  0  0
  2 32  2  0  0  0  0
  3  4  2  0  0  0  0
  3 36  1  0  0  0  0
  4  5  1  0  0  0  0
  4 26  1  0  0  0  0
  5  6  2  0  0  0  0
  5 25  1  0  0  0  0
  6  7  1  0  0  0  0
  6 37  1  0  0  0  0
  7  8  2  0  0  0  0
  8  9  1  0  0  0  0
  8 25  1  0  0  0  0
  9 10  2  0  0  0  0
  9 38  1  0  0  0  0
 10 11  1  0  0  0  0
 10 23  1  0  0  0  0
 11 12  1  0  0  0  0
 11 22  2  0  0  0  0
 12 13  2  0  0  0  0
 12 39  1  0  0  0  0
 13 14  1  0  0  0  0
 13 40  1  0  0  0  0
 14 15  1  0  0  0  0
 14 21  2  0  0  0  0
 15 16  1  0  0  0  0
 15 20  1  0  0  0  0
 15 41  1  0  0  0  0
 16 17  1  0  0  0  0
 16 42  1  0  0  0  0
 16 43  1  0  0  0  0
 17 18  1  0  0  0  0
 17 44  1  0  0  0  0
 18 19  1  0  0  0  0
 18 45  1  0  0  0  0
 18 46  1  0  0  0  0
 19 20  1  0  0  0  0
 19 47  1  0  0  0  0
 19 48  1  0  0  0  0
 20 49  1  0  0  0  0
 21 22  1  0  0  0  0
 21 50  1  0  0  0  0
 22 51  1  0  0  0  0
 23 24  2  0  0  0  0
 23 52  1  0  0  0  0
 24 25  1  0  0  0  0
 24 53  1  0  0  0  0
 26 27  1  0  0  0  0
 26 31  2  0  0  0  0
 27 28  2  0  0  0  0
 27 54  1  0  0  0  0
 28 29  1  0  0  0  0
 28 55  1  0  0  0  0
 29 30  2  0  0  0  0
 29 56  1  0  0  0  0
 30 31  1  0  0  0  0
 30 57  1  0  0  0  0
 31 32  1  0  0  0  0
M  END
$$$$
