CHEMBL407516
 OpenBabel04072215383D

 77 83  0  0  0  0  0  0  0  0999 V2000
   -2.3642    1.0831   -0.9320 C   0  0  0  0  0  0  0  0  0  0  0  0
   -1.1907    0.3830   -0.3039 C   0  0  0  0  0  0  0  0  0  0  0  0
   -1.2400   -1.0095   -0.1443 C   0  0  0  0  0  0  0  0  0  0  0  0
   -0.1688   -1.6998    0.4170 C   0  0  0  0  0  0  0  0  0  0  0  0
    0.9676   -1.0098    0.8313 C   0  0  0  0  0  0  0  0  0  0  0  0
    1.0443    0.3850    0.7050 C   0  0  0  0  0  0  0  0  0  0  0  0
    2.2793    1.0903    1.1939 C   0  0  0  0  0  0  0  0  0  0  0  0
   -0.0449    1.0829    0.1366 C   0  0  0  0  0  0  0  0  0  0  0  0
    0.0145    2.4917    0.0113 N   0  0  0  0  0  0  0  0  0  0  0  0
    0.5736    3.1101   -1.1017 C   0  0  0  0  0  0  0  0  0  0  0  0
    1.0468    2.5359   -2.0781 O   0  0  0  0  0  0  0  0  0  0  0  0
    0.5844    4.5837   -1.1012 C   0  0  0  0  0  0  0  0  0  0  0  0
    1.1145    5.3214   -2.1335 C   0  0  0  0  0  0  0  0  0  0  0  0
    1.0950    6.6760   -2.1665 N   0  0  0  0  0  0  0  0  0  0  0  0
    0.5578    7.3105   -1.1136 C   0  0  0  0  0  0  0  0  0  0  0  0
    0.4813    8.6943   -1.1758 N   0  0  0  0  0  0  0  0  0  0  0  0
    0.2005    9.6311   -0.1759 C   0  0  0  0  0  0  0  0  0  0  0  0
   -0.3543   10.8630   -0.5349 C   0  0  0  0  0  0  0  0  0  0  0  0
   -0.6857   11.8167    0.4346 C   0  0  0  0  0  0  0  0  0  0  0  0
   -0.4702   11.5543    1.7903 C   0  0  0  0  0  0  0  0  0  0  0  0
   -0.6953   12.4306    2.8196 O   0  0  0  0  0  0  0  0  0  0  0  0
   -1.0872   13.7416    2.4192 C   0  0  0  0  0  0  0  0  0  0  0  0
   -1.2104   14.6551    3.6447 C   0  0  0  0  0  0  0  0  0  0  0  0
   -1.6278   16.0199    3.2849 N   0  0  0  0  0  0  0  0  0  0  0  0
   -2.9549   16.0619    2.6389 C   0  0  0  0  0  0  0  0  0  0  0  0
   -3.3745   17.5009    2.2760 C   0  0  0  0  0  0  0  0  0  0  0  0
   -3.3758   18.4462    3.4094 N   0  0  0  0  0  0  0  0  0  0  0  0
   -4.5068   18.2033    4.2994 C   0  0  0  0  0  0  0  0  0  0  0  0
   -2.0841   18.3425    4.1194 C   0  0  0  0  0  0  0  0  0  0  0  0
   -1.6326   16.9022    4.4685 C   0  0  0  0  0  0  0  0  0  0  0  0
    0.0283   10.3069    2.1513 C   0  0  0  0  0  0  0  0  0  0  0  0
    0.2021    9.9954    3.4451 F   0  0  0  0  0  0  0  0  0  0  0  0
    0.3643    9.3615    1.1866 C   0  0  0  0  0  0  0  0  0  0  0  0
    0.0364    6.6672   -0.0604 N   0  0  0  0  0  0  0  0  0  0  0  0
    0.0476    5.3211   -0.0761 C   0  0  0  0  0  0  0  0  0  0  0  0
   -0.5306    4.6162    0.9928 N   0  0  0  0  0  0  0  0  0  0  0  0
   -1.1691    5.0875    2.1213 C   0  0  0  0  0  0  0  0  0  0  0  0
   -1.4859    6.3678    2.6030 C   0  0  0  0  0  0  0  0  0  0  0  0
   -2.1556    6.4538    3.8282 C   0  0  0  0  0  0  0  0  0  0  0  0
   -2.5079    5.3104    4.5383 C   0  0  0  0  0  0  0  0  0  0  0  0
   -2.1914    4.0394    4.0354 C   0  0  0  0  0  0  0  0  0  0  0  0
   -1.5159    3.9348    2.8161 C   0  0  0  0  0  0  0  0  0  0  0  0
   -1.1178    2.8074    2.1419 N   0  0  0  0  0  0  0  0  0  0  0  0
   -0.5407    3.2372    1.0430 C   0  0  0  0  0  0  0  0  0  0  0  0
   -3.1215    0.3668   -1.2691 H   0  0  0  0  0  0  0  0  0  0  0  0
   -2.0457    1.6522   -1.8109 H   0  0  0  0  0  0  0  0  0  0  0  0
   -2.8437    1.7535   -0.2129 H   0  0  0  0  0  0  0  0  0  0  0  0
   -2.1187   -1.5686   -0.4580 H   0  0  0  0  0  0  0  0  0  0  0  0
   -0.2203   -2.7793    0.5336 H   0  0  0  0  0  0  0  0  0  0  0  0
    1.7936   -1.5697    1.2638 H   0  0  0  0  0  0  0  0  0  0  0  0
    2.9874    0.3869    1.6466 H   0  0  0  0  0  0  0  0  0  0  0  0
    2.0228    1.8269    1.9616 H   0  0  0  0  0  0  0  0  0  0  0  0
    2.7931    1.5859    0.3648 H   0  0  0  0  0  0  0  0  0  0  0  0
    1.5760    4.8468   -2.9963 H   0  0  0  0  0  0  0  0  0  0  0  0
    0.7147    9.0375   -2.0956 H   0  0  0  0  0  0  0  0  0  0  0  0
   -0.5456   11.0937   -1.5807 H   0  0  0  0  0  0  0  0  0  0  0  0
   -1.1098   12.7537    0.0881 H   0  0  0  0  0  0  0  0  0  0  0  0
   -2.0565   13.6581    1.9198 H   0  0  0  0  0  0  0  0  0  0  0  0
   -0.3416   14.1695    1.7361 H   0  0  0  0  0  0  0  0  0  0  0  0
   -0.2235   14.6919    4.1280 H   0  0  0  0  0  0  0  0  0  0  0  0
   -1.8885   14.2034    4.3793 H   0  0  0  0  0  0  0  0  0  0  0  0
   -3.7109   15.5945    3.2833 H   0  0  0  0  0  0  0  0  0  0  0  0
   -2.9415   15.5033    1.6980 H   0  0  0  0  0  0  0  0  0  0  0  0
   -4.3589   17.4837    1.7915 H   0  0  0  0  0  0  0  0  0  0  0  0
   -2.6811   17.8821    1.5142 H   0  0  0  0  0  0  0  0  0  0  0  0
   -5.4504   18.2851    3.7480 H   0  0  0  0  0  0  0  0  0  0  0  0
   -4.5386   18.9663    5.0847 H   0  0  0  0  0  0  0  0  0  0  0  0
   -4.4811   17.2202    4.7802 H   0  0  0  0  0  0  0  0  0  0  0  0
   -2.1076   18.9524    5.0313 H   0  0  0  0  0  0  0  0  0  0  0  0
   -1.3150   18.7976    3.4810 H   0  0  0  0  0  0  0  0  0  0  0  0
   -2.2858   16.4922    5.2503 H   0  0  0  0  0  0  0  0  0  0  0  0
   -0.6209   16.9554    4.8892 H   0  0  0  0  0  0  0  0  0  0  0  0
    0.7808    8.4210    1.5313 H   0  0  0  0  0  0  0  0  0  0  0  0
   -1.2391    7.2677    2.0551 H   0  0  0  0  0  0  0  0  0  0  0  0
   -2.4064    7.4356    4.2290 H   0  0  0  0  0  0  0  0  0  0  0  0
   -3.0306    5.4003    5.4855 H   0  0  0  0  0  0  0  0  0  0  0  0
   -2.4647    3.1410    4.5824 H   0  0  0  0  0  0  0  0  0  0  0  0
  1  2  1  0  0  0  0
  1 45  1  0  0  0  0
  1 46  1  0  0  0  0
  1 47  1  0  0  0  0
  2  3  1  0  0  0  0
  2  8  2  0  0  0  0
  3  4  2  0  0  0  0
  3 48  1  0  0  0  0
  4  5  1  0  0  0  0
  4 49  1  0  0  0  0
  5  6  2  0  0  0  0
  5 50  1  0  0  0  0
  6  7  1  0  0  0  0
  6  8  1  0  0  0  0
  7 51  1  0  0  0  0
  7 52  1  0  0  0  0
  7 53  1  0  0  0  0
  8  9  1  0  0  0  0
  9 10  1  0  0  0  0
  9 44  1  0  0  0  0
 10 11  2  0  0  0  0
 10 12  1  0  0  0  0
 12 13  1  0  0  0  0
 12 35  2  0  0  0  0
 13 14  2  0  0  0  0
 13 54  1  0  0  0  0
 14 15  1  0  0  0  0
 15 16  1  0  0  0  0
 15 34  2  0  0  0  0
 16 17  1  0  0  0  0
 16 55  1  0  0  0  0
 17 18  1  0  0  0  0
 17 33  2  0  0  0  0
 18 19  2  0  0  0  0
 18 56  1  0  0  0  0
 19 20  1  0  0  0  0
 19 57  1  0  0  0  0
 20 21  1  0  0  0  0
 20 31  2  0  0  0  0
 21 22  1  0  0  0  0
 22 23  1  0  0  0  0
 22 58  1  0  0  0  0
 22 59  1  0  0  0  0
 23 24  1  0  0  0  0
 23 60  1  0  0  0  0
 23 61  1  0  0  0  0
 24 25  1  0  0  0  0
 24 30  1  0  0  0  0
 25 26  1  0  0  0  0
 25 62  1  0  0  0  0
 25 63  1  0  0  0  0
 26 27  1  0  0  0  0
 26 64  1  0  0  0  0
 26 65  1  0  0  0  0
 27 28  1  0  0  0  0
 27 29  1  0  0  0  0
 28 66  1  0  0  0  0
 28 67  1  0  0  0  0
 28 68  1  0  0  0  0
 29 30  1  0  0  0  0
 29 69  1  0  0  0  0
 29 70  1  0  0  0  0
 30 71  1  0  0  0  0
 30 72  1  0  0  0  0
 31 32  1  0  0  0  0
 31 33  1  0  0  0  0
 33 73  1  0  0  0  0
 34 35  1  0  0  0  0
 35 36  1  0  0  0  0
 36 37  1  0  0  0  0
 36 44  1  0  0  0  0
 37 38  1  0  0  0  0
 37 42  2  0  0  0  0
 38 39  2  0  0  0  0
 38 74  1  0  0  0  0
 39 40  1  0  0  0  0
 39 75  1  0  0  0  0
 40 41  2  0  0  0  0
 40 76  1  0  0  0  0
 41 42  1  0  0  0  0
 41 77  1  0  0  0  0
 42 43  1  0  0  0  0
 43 44  2  0  0  0  0
M  END
$$$$
