CHEMBL3128233
 OpenBabel04072215363D

 66 70  0  0  0  0  0  0  0  0999 V2000
    3.6172   -1.0198    1.3645 C   0  0  0  0  0  0  0  0  0  0  0  0
    2.7809    0.1047    1.1075 O   0  0  0  0  0  0  0  0  0  0  0  0
    3.3936    1.1991    0.5553 C   0  0  0  0  0  0  0  0  0  0  0  0
    4.5454    1.0913   -0.2385 C   0  0  0  0  0  0  0  0  0  0  0  0
    5.1047    2.2186   -0.8442 C   0  0  0  0  0  0  0  0  0  0  0  0
    4.5120    3.4748   -0.6749 C   0  0  0  0  0  0  0  0  0  0  0  0
    5.1086    4.6554   -1.3500 C   0  0  0  0  0  0  0  0  0  0  0  0
    5.7582    4.4410   -2.3707 O   0  0  0  0  0  0  0  0  0  0  0  0
    4.9254    5.8897   -0.7281 N   0  0  0  0  0  0  0  0  0  0  0  0
    5.4055    7.1271   -1.2241 C   0  0  0  0  0  0  0  0  0  0  0  0
    5.7987    7.2751   -2.5540 C   0  0  0  0  0  0  0  0  0  0  0  0
    6.3522    8.4680   -3.0087 C   0  0  0  0  0  0  0  0  0  0  0  0
    6.4872    9.5501   -2.1434 C   0  0  0  0  0  0  0  0  0  0  0  0
    6.0195    9.4690   -0.8228 C   0  0  0  0  0  0  0  0  0  0  0  0
    6.1040   10.6879    0.0851 C   0  0  0  0  0  0  0  0  0  0  0  0
    7.3829   10.6997    0.7703 N   0  0  0  0  0  0  0  0  0  0  0  0
    7.6147   11.7345    1.6775 C   0  0  0  0  0  0  0  0  0  0  0  0
    6.6010   12.3390    2.3336 N   0  0  0  0  0  0  0  0  0  0  0  0
    6.8863   13.2977    3.2412 C   0  0  0  0  0  0  0  0  0  0  0  0
    8.1001   13.7772    3.5978 N   0  0  0  0  0  0  0  0  0  0  0  0
    9.0807   13.1572    2.9263 C   0  0  0  0  0  0  0  0  0  0  0  0
    8.9198   12.1656    1.9767 C   0  0  0  0  0  0  0  0  0  0  0  0
   10.2268   11.8505    1.5604 C   0  0  0  0  0  0  0  0  0  0  0  0
   11.1617   12.5817    2.1809 N   0  0  0  0  0  0  0  0  0  0  0  0
   10.4426   13.3561    3.0337 N   0  0  0  0  0  0  0  0  0  0  0  0
   11.1770   14.2682    3.8968 C   0  0  0  0  0  0  0  0  0  0  0  0
   10.5194   14.5522    5.2458 C   0  0  0  0  0  0  0  0  0  0  0  0
   11.2592   15.4828    6.1806 C   0  0  0  0  0  0  0  0  0  0  0  0
   10.4973   16.2732    7.0579 C   0  0  0  0  0  0  0  0  0  0  0  0
   11.1109   17.0904    8.0055 C   0  0  0  0  0  0  0  0  0  0  0  0
   12.4984   17.1231    8.0962 C   0  0  0  0  0  0  0  0  0  0  0  0
   13.2692   16.3473    7.2320 C   0  0  0  0  0  0  0  0  0  0  0  0
   12.6550   15.5290    6.2794 C   0  0  0  0  0  0  0  0  0  0  0  0
    5.4886    8.2405   -0.3668 C   0  0  0  0  0  0  0  0  0  0  0  0
    3.3455    3.5818    0.0797 C   0  0  0  0  0  0  0  0  0  0  0  0
    2.7977    2.4622    0.7189 C   0  0  0  0  0  0  0  0  0  0  0  0
    1.6641    2.7693    1.4250 O   0  0  0  0  0  0  0  0  0  0  0  0
    1.4130    2.0102    2.5997 C   0  0  0  0  0  0  0  0  0  0  0  0
    3.0205   -1.7723    1.8877 H   0  0  0  0  0  0  0  0  0  0  0  0
    4.4534   -0.7370    2.0130 H   0  0  0  0  0  0  0  0  0  0  0  0
    3.9740   -1.4820    0.4387 H   0  0  0  0  0  0  0  0  0  0  0  0
    5.0222    0.1358   -0.4306 H   0  0  0  0  0  0  0  0  0  0  0  0
    5.9961    2.1034   -1.4605 H   0  0  0  0  0  0  0  0  0  0  0  0
    4.5486    5.8972    0.2107 H   0  0  0  0  0  0  0  0  0  0  0  0
    5.6795    6.4705   -3.2719 H   0  0  0  0  0  0  0  0  0  0  0  0
    6.6736    8.5378   -4.0443 H   0  0  0  0  0  0  0  0  0  0  0  0
    6.9430   10.4630   -2.5207 H   0  0  0  0  0  0  0  0  0  0  0  0
    5.2610   10.6725    0.7870 H   0  0  0  0  0  0  0  0  0  0  0  0
    5.9992   11.5919   -0.5289 H   0  0  0  0  0  0  0  0  0  0  0  0
    8.1691   10.5515    0.1486 H   0  0  0  0  0  0  0  0  0  0  0  0
    6.0427   13.7407    3.7572 H   0  0  0  0  0  0  0  0  0  0  0  0
   10.5404   11.1267    0.8206 H   0  0  0  0  0  0  0  0  0  0  0  0
   11.3339   15.1892    3.3247 H   0  0  0  0  0  0  0  0  0  0  0  0
   12.1576   13.8030    4.0565 H   0  0  0  0  0  0  0  0  0  0  0  0
   10.3468   13.6088    5.7783 H   0  0  0  0  0  0  0  0  0  0  0  0
    9.5400   15.0056    5.0632 H   0  0  0  0  0  0  0  0  0  0  0  0
    9.4097   16.2463    7.0130 H   0  0  0  0  0  0  0  0  0  0  0  0
   10.5032   17.6894    8.6780 H   0  0  0  0  0  0  0  0  0  0  0  0
   12.9786   17.7467    8.8452 H   0  0  0  0  0  0  0  0  0  0  0  0
   14.3534   16.3693    7.3093 H   0  0  0  0  0  0  0  0  0  0  0  0
   13.2898   14.9244    5.6372 H   0  0  0  0  0  0  0  0  0  0  0  0
    5.1665    8.1648    0.6698 H   0  0  0  0  0  0  0  0  0  0  0  0
    2.8285    4.5328    0.1673 H   0  0  0  0  0  0  0  0  0  0  0  0
    0.6806    2.5653    3.1954 H   0  0  0  0  0  0  0  0  0  0  0  0
    2.3123    1.8892    3.2135 H   0  0  0  0  0  0  0  0  0  0  0  0
    0.9588    1.0485    2.3507 H   0  0  0  0  0  0  0  0  0  0  0  0
  1  2  1  0  0  0  0
  1 39  1  0  0  0  0
  1 40  1  0  0  0  0
  1 41  1  0  0  0  0
  2  3  1  0  0  0  0
  3  4  1  0  0  0  0
  3 36  2  0  0  0  0
  4  5  2  0  0  0  0
  4 42  1  0  0  0  0
  5  6  1  0  0  0  0
  5 43  1  0  0  0  0
  6  7  1  0  0  0  0
  6 35  2  0  0  0  0
  7  8  2  0  0  0  0
  7  9  1  0  0  0  0
  9 10  1  0  0  0  0
  9 44  1  0  0  0  0
 10 11  1  0  0  0  0
 10 34  2  0  0  0  0
 11 12  2  0  0  0  0
 11 45  1  0  0  0  0
 12 13  1  0  0  0  0
 12 46  1  0  0  0  0
 13 14  2  0  0  0  0
 13 47  1  0  0  0  0
 14 15  1  0  0  0  0
 14 34  1  0  0  0  0
 15 16  1  0  0  0  0
 15 48  1  0  0  0  0
 15 49  1  0  0  0  0
 16 17  1  0  0  0  0
 16 50  1  0  0  0  0
 17 18  1  0  0  0  0
 17 22  2  0  0  0  0
 18 19  2  0  0  0  0
 19 20  1  0  0  0  0
 19 51  1  0  0  0  0
 20 21  2  0  0  0  0
 21 22  1  0  0  0  0
 21 25  1  0  0  0  0
 22 23  1  0  0  0  0
 23 24  2  0  0  0  0
 23 52  1  0  0  0  0
 24 25  1  0  0  0  0
 25 26  1  0  0  0  0
 26 27  1  0  0  0  0
 26 53  1  0  0  0  0
 26 54  1  0  0  0  0
 27 28  1  0  0  0  0
 27 55  1  0  0  0  0
 27 56  1  0  0  0  0
 28 29  1  0  0  0  0
 28 33  2  0  0  0  0
 29 30  2  0  0  0  0
 29 57  1  0  0  0  0
 30 31  1  0  0  0  0
 30 58  1  0  0  0  0
 31 32  2  0  0  0  0
 31 59  1  0  0  0  0
 32 33  1  0  0  0  0
 32 60  1  0  0  0  0
 33 61  1  0  0  0  0
 34 62  1  0  0  0  0
 35 36  1  0  0  0  0
 35 63  1  0  0  0  0
 36 37  1  0  0  0  0
 37 38  1  0  0  0  0
 38 64  1  0  0  0  0
 38 65  1  0  0  0  0
 38 66  1  0  0  0  0
M  END
$$$$
