CHEMBL1076469
 OpenBabel04072215353D

 77 81  0  0  0  0  0  0  0  0999 V2000
    0.0428   -1.6479    2.8913 C   0  0  0  0  0  0  0  0  0  0  0  0
    0.7994   -0.6596    2.0393 C   0  0  0  0  0  0  0  0  0  0  0  0
    0.8143    0.6839    2.4139 C   0  0  0  0  0  0  0  0  0  0  0  0
    1.5120    1.6193    1.6521 C   0  0  0  0  0  0  0  0  0  0  0  0
    2.2212    1.2330    0.5125 C   0  0  0  0  0  0  0  0  0  0  0  0
    2.9445    2.1433   -0.2943 N   0  0  0  0  0  0  0  0  0  0  0  0
    3.0457    3.5110   -0.1050 C   0  0  0  0  0  0  0  0  0  0  0  0
    2.4965    4.1751    0.7675 O   0  0  0  0  0  0  0  0  0  0  0  0
    3.8846    4.2550   -1.0866 C   0  0  0  0  0  0  0  0  0  0  0  0
    5.0161    3.6976   -1.6902 C   0  0  0  0  0  0  0  0  0  0  0  0
    5.7919    4.4705   -2.5576 C   0  0  0  0  0  0  0  0  0  0  0  0
    5.4410    5.7961   -2.8279 C   0  0  0  0  0  0  0  0  0  0  0  0
    4.3075    6.3701   -2.2355 C   0  0  0  0  0  0  0  0  0  0  0  0
    3.8967    7.7926   -2.5296 C   0  0  0  0  0  0  0  0  0  0  0  0
    4.7254    8.4236   -3.4078 F   0  0  0  0  0  0  0  0  0  0  0  0
    2.6516    7.8673   -3.0762 F   0  0  0  0  0  0  0  0  0  0  0  0
    3.8675    8.5738   -1.4164 F   0  0  0  0  0  0  0  0  0  0  0  0
    3.5421    5.5905   -1.3553 C   0  0  0  0  0  0  0  0  0  0  0  0
    2.1990   -0.1169    0.1246 C   0  0  0  0  0  0  0  0  0  0  0  0
    1.4834   -1.0652    0.8679 C   0  0  0  0  0  0  0  0  0  0  0  0
    1.2297   -2.3726    0.4050 N   0  0  0  0  0  0  0  0  0  0  0  0
    1.9039   -3.1600   -0.4748 C   0  0  0  0  0  0  0  0  0  0  0  0
    1.1931   -3.9600   -1.2600 N   0  0  0  0  0  0  0  0  0  0  0  0
    1.3708   -5.1918   -0.6736 C   0  0  0  0  0  0  0  0  0  0  0  0
    0.5773   -6.3438   -0.7343 C   0  0  0  0  0  0  0  0  0  0  0  0
    0.8916   -7.4081    0.1200 C   0  0  0  0  0  0  0  0  0  0  0  0
    2.0057   -7.3552    0.9636 C   0  0  0  0  0  0  0  0  0  0  0  0
    2.8620   -6.2492    0.9687 C   0  0  0  0  0  0  0  0  0  0  0  0
    2.4964   -5.1773    0.1448 C   0  0  0  0  0  0  0  0  0  0  0  0
    3.0282   -3.9125   -0.0916 N   0  0  0  0  0  0  0  0  0  0  0  0
    4.3989   -3.5732   -0.2030 C   0  0  0  0  0  0  0  0  0  0  0  0
    5.2889   -4.5826   -0.5574 C   0  0  0  0  0  0  0  0  0  0  0  0
    6.6282   -4.2614   -0.6555 C   0  0  0  0  0  0  0  0  0  0  0  0
    7.5223   -5.2875   -1.0120 N   0  0  0  0  0  0  0  0  0  0  0  0
    8.9398   -4.9678   -0.8833 C   0  0  0  0  0  0  0  0  0  0  0  0
    9.7969   -6.0435   -1.5617 C   0  0  0  0  0  0  0  0  0  0  0  0
   11.2657   -5.8809   -1.1557 C   0  0  0  0  0  0  0  0  0  0  0  0
   12.2188   -6.8790   -1.8278 C   0  0  0  0  0  0  0  0  0  0  0  0
   12.2503   -6.8210   -3.2985 N   0  0  0  0  0  0  0  0  0  0  0  0
   12.6879   -5.5140   -3.7939 C   0  0  0  0  0  0  0  0  0  0  0  0
   13.1460   -7.8624   -3.8145 C   0  0  0  0  0  0  0  0  0  0  0  0
    7.0568   -3.0205   -0.3881 N   0  0  0  0  0  0  0  0  0  0  0  0
    6.1191   -2.1029   -0.0931 C   0  0  0  0  0  0  0  0  0  0  0  0
    4.7927   -2.2997   -0.0301 N   0  0  0  0  0  0  0  0  0  0  0  0
   -0.3892   -1.1684    3.7772 H   0  0  0  0  0  0  0  0  0  0  0  0
    0.7173   -2.4350    3.2445 H   0  0  0  0  0  0  0  0  0  0  0  0
   -0.7797   -2.0987    2.3273 H   0  0  0  0  0  0  0  0  0  0  0  0
    0.2703    1.0208    3.2933 H   0  0  0  0  0  0  0  0  0  0  0  0
    1.4666    2.6515    1.9812 H   0  0  0  0  0  0  0  0  0  0  0  0
    3.3816    1.7436   -1.1137 H   0  0  0  0  0  0  0  0  0  0  0  0
    5.3327    2.6820   -1.4703 H   0  0  0  0  0  0  0  0  0  0  0  0
    6.6814    4.0446   -3.0173 H   0  0  0  0  0  0  0  0  0  0  0  0
    6.0631    6.3847   -3.5016 H   0  0  0  0  0  0  0  0  0  0  0  0
    2.6689    6.0283   -0.8688 H   0  0  0  0  0  0  0  0  0  0  0  0
    2.7049   -0.4337   -0.7826 H   0  0  0  0  0  0  0  0  0  0  0  0
    0.2419   -2.3879    0.1433 H   0  0  0  0  0  0  0  0  0  0  0  0
   -0.3058   -6.3651   -1.3619 H   0  0  0  0  0  0  0  0  0  0  0  0
    0.2380   -8.2768    0.1478 H   0  0  0  0  0  0  0  0  0  0  0  0
    2.2026   -8.1841    1.6416 H   0  0  0  0  0  0  0  0  0  0  0  0
    3.7179   -6.1995    1.6350 H   0  0  0  0  0  0  0  0  0  0  0  0
    4.9682   -5.5933   -0.7822 H   0  0  0  0  0  0  0  0  0  0  0  0
    7.2740   -5.6728   -1.9198 H   0  0  0  0  0  0  0  0  0  0  0  0
    9.1863   -4.9261    0.1846 H   0  0  0  0  0  0  0  0  0  0  0  0
    9.1837   -3.9976   -1.3323 H   0  0  0  0  0  0  0  0  0  0  0  0
    9.6827   -5.9577   -2.6495 H   0  0  0  0  0  0  0  0  0  0  0  0
    9.4479   -7.0462   -1.2857 H   0  0  0  0  0  0  0  0  0  0  0  0
   11.3448   -6.0233   -0.0701 H   0  0  0  0  0  0  0  0  0  0  0  0
   11.5963   -4.8536   -1.3475 H   0  0  0  0  0  0  0  0  0  0  0  0
   11.9117   -7.8870   -1.5190 H   0  0  0  0  0  0  0  0  0  0  0  0
   13.2267   -6.7209   -1.4203 H   0  0  0  0  0  0  0  0  0  0  0  0
   11.9603   -4.7345   -3.5473 H   0  0  0  0  0  0  0  0  0  0  0  0
   12.7584   -5.5203   -4.8877 H   0  0  0  0  0  0  0  0  0  0  0  0
   13.6640   -5.2231   -3.3891 H   0  0  0  0  0  0  0  0  0  0  0  0
   12.8167   -8.8552   -3.4877 H   0  0  0  0  0  0  0  0  0  0  0  0
   14.1819   -7.7174   -3.4846 H   0  0  0  0  0  0  0  0  0  0  0  0
   13.1327   -7.8742   -4.9102 H   0  0  0  0  0  0  0  0  0  0  0  0
    6.4761   -1.1008    0.1218 H   0  0  0  0  0  0  0  0  0  0  0  0
  1  2  1  0  0  0  0
  1 45  1  0  0  0  0
  1 46  1  0  0  0  0
  1 47  1  0  0  0  0
  2  3  1  0  0  0  0
  2 20  2  0  0  0  0
  3  4  2  0  0  0  0
  3 48  1  0  0  0  0
  4  5  1  0  0  0  0
  4 49  1  0  0  0  0
  5  6  1  0  0  0  0
  5 19  2  0  0  0  0
  6  7  1  0  0  0  0
  6 50  1  0  0  0  0
  7  8  2  0  0  0  0
  7  9  1  0  0  0  0
  9 10  1  0  0  0  0
  9 18  2  0  0  0  0
 10 11  2  0  0  0  0
 10 51  1  0  0  0  0
 11 12  1  0  0  0  0
 11 52  1  0  0  0  0
 12 13  2  0  0  0  0
 12 53  1  0  0  0  0
 13 14  1  0  0  0  0
 13 18  1  0  0  0  0
 14 15  1  0  0  0  0
 14 16  1  0  0  0  0
 14 17  1  0  0  0  0
 18 54  1  0  0  0  0
 19 20  1  0  0  0  0
 19 55  1  0  0  0  0
 20 21  1  0  0  0  0
 21 22  1  0  0  0  0
 21 56  1  0  0  0  0
 22 23  2  0  0  0  0
 22 30  1  0  0  0  0
 23 24  1  0  0  0  0
 24 25  1  0  0  0  0
 24 29  2  0  0  0  0
 25 26  2  0  0  0  0
 25 57  1  0  0  0  0
 26 27  1  0  0  0  0
 26 58  1  0  0  0  0
 27 28  2  0  0  0  0
 27 59  1  0  0  0  0
 28 29  1  0  0  0  0
 28 60  1  0  0  0  0
 29 30  1  0  0  0  0
 30 31  1  0  0  0  0
 31 32  1  0  0  0  0
 31 44  2  0  0  0  0
 32 33  2  0  0  0  0
 32 61  1  0  0  0  0
 33 34  1  0  0  0  0
 33 42  1  0  0  0  0
 34 35  1  0  0  0  0
 34 62  1  0  0  0  0
 35 36  1  0  0  0  0
 35 63  1  0  0  0  0
 35 64  1  0  0  0  0
 36 37  1  0  0  0  0
 36 65  1  0  0  0  0
 36 66  1  0  0  0  0
 37 38  1  0  0  0  0
 37 67  1  0  0  0  0
 37 68  1  0  0  0  0
 38 39  1  0  0  0  0
 38 69  1  0  0  0  0
 38 70  1  0  0  0  0
 39 40  1  0  0  0  0
 39 41  1  0  0  0  0
 40 71  1  0  0  0  0
 40 72  1  0  0  0  0
 40 73  1  0  0  0  0
 41 74  1  0  0  0  0
 41 75  1  0  0  0  0
 41 76  1  0  0  0  0
 42 43  2  0  0  0  0
 43 44  1  0  0  0  0
 43 77  1  0  0  0  0
M  END
$$$$
