CHEMBL3966316
 OpenBabel04072215373D

 59 62  0  0  0  0  0  0  0  0999 V2000
    2.0052   -0.7649    1.3264 C   0  0  0  0  0  0  0  0  0  0  0  0
    3.3476   -0.3581    1.0674 O   0  0  0  0  0  0  0  0  0  0  0  0
    3.5093    0.9494    0.6925 C   0  0  0  0  0  0  0  0  0  0  0  0
    2.6887    1.9956    1.0906 C   0  0  0  0  0  0  0  0  0  0  0  0
    2.9752    3.2785    0.6446 C   0  0  0  0  0  0  0  0  0  0  0  0
    2.1792    4.2896    1.0184 F   0  0  0  0  0  0  0  0  0  0  0  0
    4.0535    3.5411   -0.1994 C   0  0  0  0  0  0  0  0  0  0  0  0
    4.9059    2.5115   -0.6166 C   0  0  0  0  0  0  0  0  0  0  0  0
    5.9759    2.7241   -1.5276 N   0  0  0  0  0  0  0  0  0  0  0  0
    6.7381    3.9945   -1.4232 C   0  0  0  0  0  0  0  0  0  0  0  0
    6.9747    4.7071   -2.7645 C   0  0  0  0  0  0  0  0  0  0  0  0
    5.7153    5.1517   -3.5128 C   0  0  0  0  0  0  0  0  0  0  0  0
    6.1664    5.7558   -4.7696 N   0  0  0  0  0  0  0  0  0  0  0  0
    5.0686    6.2632   -5.6194 C   0  0  0  0  0  0  0  0  0  0  0  0
    5.5086    6.8757   -6.9747 C   0  0  0  0  0  0  0  0  0  0  0  0
    6.8421    6.7648   -7.1786 F   0  0  0  0  0  0  0  0  0  0  0  0
    4.8964    6.2474   -8.0062 F   0  0  0  0  0  0  0  0  0  0  0  0
    5.1897    8.1874   -7.0498 F   0  0  0  0  0  0  0  0  0  0  0  0
    6.4182    1.7865   -2.4964 C   0  0  0  0  0  0  0  0  0  0  0  0
    5.4700    1.0498   -3.2168 C   0  0  0  0  0  0  0  0  0  0  0  0
    5.8542    0.2129   -4.2633 C   0  0  0  0  0  0  0  0  0  0  0  0
    7.1810    0.0976   -4.6342 C   0  0  0  0  0  0  0  0  0  0  0  0
    7.4919   -0.6726   -5.6896 N   0  0  0  0  0  0  0  0  0  0  0  0
    8.7979   -0.7044   -6.0374 C   0  0  0  0  0  0  0  0  0  0  0  0
    9.7840   -0.0049   -5.3572 C   0  0  0  0  0  0  0  0  0  0  0  0
   11.1670   -0.0367   -5.8007 C   0  0  0  0  0  0  0  0  0  0  0  0
   11.7693   -0.6948   -6.8998 C   0  0  0  0  0  0  0  0  0  0  0  0
   13.0796   -0.4667   -6.9930 N   0  0  0  0  0  0  0  0  0  0  0  0
   13.3297    0.3456   -5.9515 N   0  0  0  0  0  0  0  0  0  0  0  0
   14.6689    0.8315   -5.7290 C   0  0  0  0  0  0  0  0  0  0  0  0
   12.2204    0.6329   -5.2080 C   0  0  0  0  0  0  0  0  0  0  0  0
    9.4760    0.7520   -4.2724 N   0  0  0  0  0  0  0  0  0  0  0  0
    8.1714    0.8077   -3.9128 C   0  0  0  0  0  0  0  0  0  0  0  0
    7.7706    1.6059   -2.8409 C   0  0  0  0  0  0  0  0  0  0  0  0
    4.6180    1.2168   -0.1275 C   0  0  0  0  0  0  0  0  0  0  0  0
    2.0118   -1.8413    1.5248 H   0  0  0  0  0  0  0  0  0  0  0  0
    1.3684   -0.5882    0.4526 H   0  0  0  0  0  0  0  0  0  0  0  0
    1.5961   -0.2738    2.2146 H   0  0  0  0  0  0  0  0  0  0  0  0
    1.8391    1.8572    1.7480 H   0  0  0  0  0  0  0  0  0  0  0  0
    4.1765    4.5617   -0.5439 H   0  0  0  0  0  0  0  0  0  0  0  0
    7.7132    3.7766   -0.9659 H   0  0  0  0  0  0  0  0  0  0  0  0
    6.2746    4.7097   -0.7370 H   0  0  0  0  0  0  0  0  0  0  0  0
    7.5775    4.0814   -3.4310 H   0  0  0  0  0  0  0  0  0  0  0  0
    7.5958    5.5902   -2.5644 H   0  0  0  0  0  0  0  0  0  0  0  0
    5.1694    5.8880   -2.9127 H   0  0  0  0  0  0  0  0  0  0  0  0
    5.0518    4.3035   -3.7115 H   0  0  0  0  0  0  0  0  0  0  0  0
    6.7136    5.0785   -5.3076 H   0  0  0  0  0  0  0  0  0  0  0  0
    4.5155    7.0293   -5.0643 H   0  0  0  0  0  0  0  0  0  0  0  0
    4.3688    5.4455   -5.8293 H   0  0  0  0  0  0  0  0  0  0  0  0
    4.4093    1.1570   -3.0005 H   0  0  0  0  0  0  0  0  0  0  0  0
    5.0966   -0.3245   -4.8252 H   0  0  0  0  0  0  0  0  0  0  0  0
    9.0134   -1.3198   -6.9029 H   0  0  0  0  0  0  0  0  0  0  0  0
   11.3096   -1.3314   -7.6465 H   0  0  0  0  0  0  0  0  0  0  0  0
   15.3531    0.3576   -6.4390 H   0  0  0  0  0  0  0  0  0  0  0  0
   14.9640    0.5801   -4.7076 H   0  0  0  0  0  0  0  0  0  0  0  0
   14.6704    1.9139   -5.8771 H   0  0  0  0  0  0  0  0  0  0  0  0
   12.2660    1.2792   -4.3427 H   0  0  0  0  0  0  0  0  0  0  0  0
    8.5526    2.1267   -2.2936 H   0  0  0  0  0  0  0  0  0  0  0  0
    5.2670    0.3828   -0.3909 H   0  0  0  0  0  0  0  0  0  0  0  0
  1  2  1  0  0  0  0
  1 36  1  0  0  0  0
  1 37  1  0  0  0  0
  1 38  1  0  0  0  0
  2  3  1  0  0  0  0
  3  4  1  0  0  0  0
  3 35  2  0  0  0  0
  4  5  2  0  0  0  0
  4 39  1  0  0  0  0
  5  6  1  0  0  0  0
  5  7  1  0  0  0  0
  7  8  2  0  0  0  0
  7 40  1  0  0  0  0
  8  9  1  0  0  0  0
  8 35  1  0  0  0  0
  9 10  1  0  0  0  0
  9 19  1  0  0  0  0
 10 11  1  0  0  0  0
 10 41  1  0  0  0  0
 10 42  1  0  0  0  0
 11 12  1  0  0  0  0
 11 43  1  0  0  0  0
 11 44  1  0  0  0  0
 12 13  1  0  0  0  0
 12 45  1  0  0  0  0
 12 46  1  0  0  0  0
 13 14  1  0  0  0  0
 13 47  1  0  0  0  0
 14 15  1  0  0  0  0
 14 48  1  0  0  0  0
 14 49  1  0  0  0  0
 15 16  1  0  0  0  0
 15 17  1  0  0  0  0
 15 18  1  0  0  0  0
 19 20  1  0  0  0  0
 19 34  2  0  0  0  0
 20 21  2  0  0  0  0
 20 50  1  0  0  0  0
 21 22  1  0  0  0  0
 21 51  1  0  0  0  0
 22 23  1  0  0  0  0
 22 33  2  0  0  0  0
 23 24  2  0  0  0  0
 24 25  1  0  0  0  0
 24 52  1  0  0  0  0
 25 26  1  0  0  0  0
 25 32  2  0  0  0  0
 26 27  1  0  0  0  0
 26 31  2  0  0  0  0
 27 28  2  0  0  0  0
 27 53  1  0  0  0  0
 28 29  1  0  0  0  0
 29 30  1  0  0  0  0
 29 31  1  0  0  0  0
 30 54  1  0  0  0  0
 30 55  1  0  0  0  0
 30 56  1  0  0  0  0
 31 57  1  0  0  0  0
 32 33  1  0  0  0  0
 33 34  1  0  0  0  0
 34 58  1  0  0  0  0
 35 59  1  0  0  0  0
M  END
$$$$
