CHEMBL381562
 OpenBabel04072215373D

 34 37  0  0  0  0  0  0  0  0999 V2000
    0.8710   -0.1497    0.0336 C   0  0  0  0  0  0  0  0  0  0  0  0
    2.3141   -0.0487    0.0301 N   0  0  0  0  0  0  0  0  0  0  0  0
    3.0048    1.1325    0.0084 C   0  0  0  0  0  0  0  0  0  0  0  0
    4.3461    0.8515    0.1252 C   0  0  0  0  0  0  0  0  0  0  0  0
    5.4179    1.7973    0.1988 C   0  0  0  0  0  0  0  0  0  0  0  0
    5.4314    3.0504    0.6803 C   0  0  0  0  0  0  0  0  0  0  0  0
    4.3384    3.8541    1.2822 C   0  0  0  0  0  0  0  0  0  0  0  0
    3.2258    3.5310    1.6415 O   0  0  0  0  0  0  0  0  0  0  0  0
    4.8973    5.1138    1.3992 N   0  0  0  0  0  0  0  0  0  0  0  0
    6.2339    5.1870    1.1085 N   0  0  0  0  0  0  0  0  0  0  0  0
    6.5992    3.9866    0.7089 C   0  0  0  0  0  0  0  0  0  0  0  0
    7.9753    3.6505    0.4152 C   0  0  0  0  0  0  0  0  0  0  0  0
    8.3809    2.4594    0.0208 N   0  0  0  0  0  0  0  0  0  0  0  0
    9.7585    2.4425   -0.0887 C   0  0  0  0  0  0  0  0  0  0  0  0
   10.3932    3.6230    0.2250 C   0  0  0  0  0  0  0  0  0  0  0  0
    9.2311    4.8067    0.6477 S   0  0  0  0  0  0  0  0  0  0  0  0
    4.4796   -0.5760    0.0921 C   0  0  0  0  0  0  0  0  0  0  0  0
    5.5754   -1.4655    0.1061 C   0  0  0  0  0  0  0  0  0  0  0  0
    5.3355   -2.8374    0.0827 C   0  0  0  0  0  0  0  0  0  0  0  0
    6.3777   -3.6822    0.0872 F   0  0  0  0  0  0  0  0  0  0  0  0
    4.0482   -3.3546    0.0537 C   0  0  0  0  0  0  0  0  0  0  0  0
    2.9460   -2.4994    0.0393 C   0  0  0  0  0  0  0  0  0  0  0  0
    3.1865   -1.1148    0.0501 C   0  0  0  0  0  0  0  0  0  0  0  0
    0.4340    0.8525    0.0392 H   0  0  0  0  0  0  0  0  0  0  0  0
    0.5654   -0.6871    0.9351 H   0  0  0  0  0  0  0  0  0  0  0  0
    0.5584   -0.6857   -0.8649 H   0  0  0  0  0  0  0  0  0  0  0  0
    2.4701    2.0693   -0.0574 H   0  0  0  0  0  0  0  0  0  0  0  0
    6.3497    1.4054   -0.2000 H   0  0  0  0  0  0  0  0  0  0  0  0
    4.4133    5.8979    1.8209 H   0  0  0  0  0  0  0  0  0  0  0  0
   10.2554    1.5304   -0.3960 H   0  0  0  0  0  0  0  0  0  0  0  0
   11.4515    3.8413    0.2257 H   0  0  0  0  0  0  0  0  0  0  0  0
    6.5975   -1.1016    0.1319 H   0  0  0  0  0  0  0  0  0  0  0  0
    3.9070   -4.4309    0.0418 H   0  0  0  0  0  0  0  0  0  0  0  0
    1.9371   -2.8997    0.0177 H   0  0  0  0  0  0  0  0  0  0  0  0
  1  2  1  0  0  0  0
  1 24  1  0  0  0  0
  1 25  1  0  0  0  0
  1 26  1  0  0  0  0
  2  3  1  0  0  0  0
  2 23  1  0  0  0  0
  3  4  2  0  0  0  0
  3 27  1  0  0  0  0
  4  5  1  0  0  0  0
  4 17  1  0  0  0  0
  5  6  2  0  0  0  0
  5 28  1  0  0  0  0
  6  7  1  0  0  0  0
  6 11  1  0  0  0  0
  7  8  2  0  0  0  0
  7  9  1  0  0  0  0
  9 10  1  0  0  0  0
  9 29  1  0  0  0  0
 10 11  2  0  0  0  0
 11 12  1  0  0  0  0
 12 13  2  0  0  0  0
 12 16  1  0  0  0  0
 13 14  1  0  0  0  0
 14 15  2  0  0  0  0
 14 30  1  0  0  0  0
 15 16  1  0  0  0  0
 15 31  1  0  0  0  0
 17 18  1  0  0  0  0
 17 23  2  0  0  0  0
 18 19  2  0  0  0  0
 18 32  1  0  0  0  0
 19 20  1  0  0  0  0
 19 21  1  0  0  0  0
 21 22  2  0  0  0  0
 21 33  1  0  0  0  0
 22 23  1  0  0  0  0
 22 34  1  0  0  0  0
M  END
$$$$
