CHEMBL3361128
 OpenBabel04072215363D

 29 31  0  0  0  0  0  0  0  0999 V2000
    1.6011   -1.9765    0.0114 O   0  0  0  0  0  0  0  0  0  0  0  0
    1.1019   -0.8729    0.0138 C   0  0  0  0  0  0  0  0  0  0  0  0
    1.7341    0.4805   -0.0098 C   0  0  0  0  0  0  0  0  0  0  0  0
    3.0423    0.7681   -0.0377 C   0  0  0  0  0  0  0  0  0  0  0  0
    4.1051   -0.2369   -0.0481 C   0  0  0  0  0  0  0  0  0  0  0  0
    4.5796   -0.7472   -1.2666 C   0  0  0  0  0  0  0  0  0  0  0  0
    5.5545   -1.7503   -1.2855 C   0  0  0  0  0  0  0  0  0  0  0  0
    6.0523   -2.2311   -0.0808 C   0  0  0  0  0  0  0  0  0  0  0  0
    6.9912   -3.2250   -0.0322 O   0  0  0  0  0  0  0  0  0  0  0  0
    5.5959   -1.7115    1.1284 C   0  0  0  0  0  0  0  0  0  0  0  0
    6.0969   -2.1891    2.3064 O   0  0  0  0  0  0  0  0  0  0  0  0
    4.6260   -0.7189    1.1566 C   0  0  0  0  0  0  0  0  0  0  0  0
    0.7492    1.4742   -0.0084 O   0  0  0  0  0  0  0  0  0  0  0  0
   -0.4564    0.8121    0.0045 C   0  0  0  0  0  0  0  0  0  0  0  0
   -1.7016    1.4031   -0.0058 C   0  0  0  0  0  0  0  0  0  0  0  0
   -2.8202    0.5601   -0.0005 C   0  0  0  0  0  0  0  0  0  0  0  0
   -2.6740   -0.8425    0.0167 C   0  0  0  0  0  0  0  0  0  0  0  0
   -1.4058   -1.4266    0.0284 C   0  0  0  0  0  0  0  0  0  0  0  0
   -0.3215   -0.5714    0.0211 C   0  0  0  0  0  0  0  0  0  0  0  0
    3.3719    1.8025   -0.0538 H   0  0  0  0  0  0  0  0  0  0  0  0
    4.1773   -0.3803   -2.2083 H   0  0  0  0  0  0  0  0  0  0  0  0
    5.8966   -2.1420   -2.2371 H   0  0  0  0  0  0  0  0  0  0  0  0
    7.1410   -3.5387   -0.9406 H   0  0  0  0  0  0  0  0  0  0  0  0
    6.7206   -2.8922    2.0357 H   0  0  0  0  0  0  0  0  0  0  0  0
    4.2701   -0.3464    2.1132 H   0  0  0  0  0  0  0  0  0  0  0  0
   -1.8135    2.4818   -0.0203 H   0  0  0  0  0  0  0  0  0  0  0  0
   -3.8197    0.9911   -0.0113 H   0  0  0  0  0  0  0  0  0  0  0  0
   -3.5594   -1.4759    0.0188 H   0  0  0  0  0  0  0  0  0  0  0  0
   -1.2708   -2.5026    0.0402 H   0  0  0  0  0  0  0  0  0  0  0  0
  1  2  2  0  0  0  0
  2  3  1  0  0  0  0
  2 19  1  0  0  0  0
  3  4  2  0  0  0  0
  3 13  1  0  0  0  0
  4  5  1  0  0  0  0
  4 20  1  0  0  0  0
  5  6  1  0  0  0  0
  5 12  2  0  0  0  0
  6  7  2  0  0  0  0
  6 21  1  0  0  0  0
  7  8  1  0  0  0  0
  7 22  1  0  0  0  0
  8  9  1  0  0  0  0
  8 10  2  0  0  0  0
  9 23  1  0  0  0  0
 10 11  1  0  0  0  0
 10 12  1  0  0  0  0
 11 24  1  0  0  0  0
 12 25  1  0  0  0  0
 13 14  1  0  0  0  0
 14 15  1  0  0  0  0
 14 19  2  0  0  0  0
 15 16  2  0  0  0  0
 15 26  1  0  0  0  0
 16 17  1  0  0  0  0
 16 27  1  0  0  0  0
 17 18  2  0  0  0  0
 17 28  1  0  0  0  0
 18 19  1  0  0  0  0
 18 29  1  0  0  0  0
M  END
$$$$
