CHEMBL1088028
 OpenBabel04072215363D

 54 58  0  0  0  0  0  0  0  0999 V2000
    2.4330    0.2495   -0.4728 C   0  0  0  0  0  0  0  0  0  0  0  0
    0.9623    0.1427   -0.1682 C   0  0  0  0  0  0  0  0  0  0  0  0
    0.1994    1.3265   -0.1805 C   0  0  0  0  0  0  0  0  0  0  0  0
   -1.1853    1.2880   -0.0350 C   0  0  0  0  0  0  0  0  0  0  0  0
   -1.8318    0.0595    0.0723 C   0  0  0  0  0  0  0  0  0  0  0  0
   -3.3175    0.0237    0.1303 C   0  0  0  0  0  0  0  0  0  0  0  0
   -3.9320    0.9244   -0.4239 O   0  0  0  0  0  0  0  0  0  0  0  0
   -3.8701   -1.0134    0.8689 N   0  0  0  0  0  0  0  0  0  0  0  0
   -5.2480   -1.2489    1.0605 C   0  0  0  0  0  0  0  0  0  0  0  0
   -6.2392   -0.6720    0.2631 C   0  0  0  0  0  0  0  0  0  0  0  0
   -7.5917   -0.8961    0.5279 C   0  0  0  0  0  0  0  0  0  0  0  0
   -7.9686   -1.7036    1.5974 C   0  0  0  0  0  0  0  0  0  0  0  0
   -6.9837   -2.3125    2.3736 C   0  0  0  0  0  0  0  0  0  0  0  0
   -7.4920   -3.4035    3.8334 Br  0  0  0  0  0  0  0  0  0  0  0  0
   -5.6300   -2.1041    2.0986 C   0  0  0  0  0  0  0  0  0  0  0  0
   -1.0775   -1.1129    0.0923 C   0  0  0  0  0  0  0  0  0  0  0  0
    0.3265   -1.0965    0.0743 C   0  0  0  0  0  0  0  0  0  0  0  0
    1.0770   -2.2794    0.2906 N   0  0  0  0  0  0  0  0  0  0  0  0
    0.6111   -3.4213    0.8842 C   0  0  0  0  0  0  0  0  0  0  0  0
   -0.6444   -3.7688    1.0784 N   0  0  0  0  0  0  0  0  0  0  0  0
   -0.6326   -5.0233    1.5989 C   0  0  0  0  0  0  0  0  0  0  0  0
   -1.7277   -5.8308    1.9415 C   0  0  0  0  0  0  0  0  0  0  0  0
   -1.4929   -7.0932    2.4882 C   0  0  0  0  0  0  0  0  0  0  0  0
   -0.1909   -7.5250    2.7253 C   0  0  0  0  0  0  0  0  0  0  0  0
    0.9119   -6.7212    2.4059 C   0  0  0  0  0  0  0  0  0  0  0  0
    0.6676   -5.4784    1.7917 C   0  0  0  0  0  0  0  0  0  0  0  0
    1.4710   -4.4412    1.3123 N   0  0  0  0  0  0  0  0  0  0  0  0
    2.8953   -4.4020    1.2406 C   0  0  0  0  0  0  0  0  0  0  0  0
    3.6001   -5.5726    1.0521 C   0  0  0  0  0  0  0  0  0  0  0  0
    4.9674   -5.4605    0.9491 C   0  0  0  0  0  0  0  0  0  0  0  0
    5.7324   -6.5745    0.6178 N   0  0  0  0  0  0  0  0  0  0  0  0
    5.6092   -4.2945    1.0589 N   0  0  0  0  0  0  0  0  0  0  0  0
    4.8437   -3.2109    1.2368 C   0  0  0  0  0  0  0  0  0  0  0  0
    3.5040   -3.1926    1.2967 N   0  0  0  0  0  0  0  0  0  0  0  0
    2.7231    1.2860   -0.6828 H   0  0  0  0  0  0  0  0  0  0  0  0
    2.6672   -0.3316   -1.3720 H   0  0  0  0  0  0  0  0  0  0  0  0
    3.0399   -0.1017    0.3648 H   0  0  0  0  0  0  0  0  0  0  0  0
    0.6810    2.2937   -0.3131 H   0  0  0  0  0  0  0  0  0  0  0  0
   -1.7602    2.2111   -0.0367 H   0  0  0  0  0  0  0  0  0  0  0  0
   -3.2342   -1.5707    1.4299 H   0  0  0  0  0  0  0  0  0  0  0  0
   -5.9834   -0.0437   -0.5870 H   0  0  0  0  0  0  0  0  0  0  0  0
   -8.3457   -0.4231   -0.0936 H   0  0  0  0  0  0  0  0  0  0  0  0
   -9.0225   -1.8502    1.8133 H   0  0  0  0  0  0  0  0  0  0  0  0
   -4.8783   -2.5814    2.7243 H   0  0  0  0  0  0  0  0  0  0  0  0
   -1.6047   -2.0598    0.0941 H   0  0  0  0  0  0  0  0  0  0  0  0
    2.0845   -2.1285    0.3298 H   0  0  0  0  0  0  0  0  0  0  0  0
   -2.7383   -5.4726    1.7752 H   0  0  0  0  0  0  0  0  0  0  0  0
   -2.3347   -7.7330    2.7420 H   0  0  0  0  0  0  0  0  0  0  0  0
   -0.0282   -8.5039    3.1730 H   0  0  0  0  0  0  0  0  0  0  0  0
    1.9095   -7.0709    2.6459 H   0  0  0  0  0  0  0  0  0  0  0  0
    3.1266   -6.5296    0.8889 H   0  0  0  0  0  0  0  0  0  0  0  0
    5.5454   -7.3837    1.1967 H   0  0  0  0  0  0  0  0  0  0  0  0
    6.7128   -6.3073    0.6223 H   0  0  0  0  0  0  0  0  0  0  0  0
    5.3567   -2.2596    1.3343 H   0  0  0  0  0  0  0  0  0  0  0  0
  1  2  1  0  0  0  0
  1 35  1  0  0  0  0
  1 36  1  0  0  0  0
  1 37  1  0  0  0  0
  2  3  1  0  0  0  0
  2 17  2  0  0  0  0
  3  4  2  0  0  0  0
  3 38  1  0  0  0  0
  4  5  1  0  0  0  0
  4 39  1  0  0  0  0
  5  6  1  0  0  0  0
  5 16  2  0  0  0  0
  6  7  2  0  0  0  0
  6  8  1  0  0  0  0
  8  9  1  0  0  0  0
  8 40  1  0  0  0  0
  9 10  1  0  0  0  0
  9 15  2  0  0  0  0
 10 11  2  0  0  0  0
 10 41  1  0  0  0  0
 11 12  1  0  0  0  0
 11 42  1  0  0  0  0
 12 13  2  0  0  0  0
 12 43  1  0  0  0  0
 13 14  1  0  0  0  0
 13 15  1  0  0  0  0
 15 44  1  0  0  0  0
 16 17  1  0  0  0  0
 16 45  1  0  0  0  0
 17 18  1  0  0  0  0
 18 19  1  0  0  0  0
 18 46  1  0  0  0  0
 19 20  2  0  0  0  0
 19 27  1  0  0  0  0
 20 21  1  0  0  0  0
 21 22  1  0  0  0  0
 21 26  2  0  0  0  0
 22 23  2  0  0  0  0
 22 47  1  0  0  0  0
 23 24  1  0  0  0  0
 23 48  1  0  0  0  0
 24 25  2  0  0  0  0
 24 49  1  0  0  0  0
 25 26  1  0  0  0  0
 25 50  1  0  0  0  0
 26 27  1  0  0  0  0
 27 28  1  0  0  0  0
 28 29  1  0  0  0  0
 28 34  2  0  0  0  0
 29 30  2  0  0  0  0
 29 51  1  0  0  0  0
 30 31  1  0  0  0  0
 30 32  1  0  0  0  0
 31 52  1  0  0  0  0
 31 53  1  0  0  0  0
 32 33  2  0  0  0  0
 33 34  1  0  0  0  0
 33 54  1  0  0  0  0
M  END
$$$$
