CHEMBL271301
 OpenBabel04072215363D

 49 54  0  0  0  0  0  0  0  0999 V2000
    1.3386    0.7701    0.6760 C   0  0  0  0  0  0  0  0  0  0  0  0
    2.5960   -0.0070    0.2461 C   0  0  0  0  0  0  0  0  0  0  0  0
    3.0100   -0.9868    0.9328 O   0  0  0  0  0  0  0  0  0  0  0  0
    3.2739    0.3924   -1.0070 C   0  0  0  0  0  0  0  0  0  0  0  0
    2.7984    1.5847   -1.5771 C   0  0  0  0  0  0  0  0  0  0  0  0
    3.2951    1.9701   -2.7758 C   0  0  0  0  0  0  0  0  0  0  0  0
    4.2897    1.1879   -3.4076 C   0  0  0  0  0  0  0  0  0  0  0  0
    4.8981    0.0350   -2.8445 C   0  0  0  0  0  0  0  0  0  0  0  0
    4.3517   -0.3701   -1.6064 C   0  0  0  0  0  0  0  0  0  0  0  0
    5.9511   -0.2631   -3.7722 C   0  0  0  0  0  0  0  0  0  0  0  0
    7.1073   -1.0224   -3.6003 C   0  0  0  0  0  0  0  0  0  0  0  0
    8.2690   -0.8977   -4.6183 C   0  0  0  0  0  0  0  0  0  0  0  0
    8.3392    0.1336   -5.6274 C   0  0  0  0  0  0  0  0  0  0  0  0
    7.1768    0.9018   -5.5193 C   0  0  0  0  0  0  0  0  0  0  0  0
    6.0120    0.6494   -4.8022 C   0  0  0  0  0  0  0  0  0  0  0  0
    4.9021    1.4657   -4.6024 N   0  0  0  0  0  0  0  0  0  0  0  0
    4.6184    2.7177   -5.2922 C   0  0  0  0  0  0  0  0  0  0  0  0
    7.3320    2.3611   -5.7018 C   0  0  0  0  0  0  0  0  0  0  0  0
    8.4780    3.2500   -5.9913 C   0  0  0  0  0  0  0  0  0  0  0  0
    9.6657    2.3949   -6.1854 C   0  0  0  0  0  0  0  0  0  0  0  0
   10.5325    2.9208   -7.0533 N   0  0  0  0  0  0  0  0  0  0  0  0
   10.0654    2.3260   -8.1666 N   0  0  0  0  0  0  0  0  0  0  0  0
    9.6543    3.2465   -9.2384 C   0  0  0  0  0  0  0  0  0  0  0  0
    9.5870    1.0375   -7.8169 C   0  0  0  0  0  0  0  0  0  0  0  0
    9.4924    0.9334   -6.3856 C   0  0  0  0  0  0  0  0  0  0  0  0
    9.2291   -1.9107   -4.2100 C   0  0  0  0  0  0  0  0  0  0  0  0
   10.2993   -2.2718   -4.6993 O   0  0  0  0  0  0  0  0  0  0  0  0
    8.7007   -2.5375   -3.0885 N   0  0  0  0  0  0  0  0  0  0  0  0
    7.3853   -2.0901   -2.6258 C   0  0  0  0  0  0  0  0  0  0  0  0
    0.8651    0.2706    1.5177 H   0  0  0  0  0  0  0  0  0  0  0  0
    0.6143    0.8171   -0.1378 H   0  0  0  0  0  0  0  0  0  0  0  0
    1.6211    1.7779    0.9801 H   0  0  0  0  0  0  0  0  0  0  0  0
    2.0308    2.2385   -1.1865 H   0  0  0  0  0  0  0  0  0  0  0  0
    2.9604    2.8974   -3.2347 H   0  0  0  0  0  0  0  0  0  0  0  0
    4.7323   -1.2593   -1.0523 H   0  0  0  0  0  0  0  0  0  0  0  0
    5.0043    2.7482   -6.2989 H   0  0  0  0  0  0  0  0  0  0  0  0
    5.0522    3.5319   -4.6734 H   0  0  0  0  0  0  0  0  0  0  0  0
    3.5314    2.8590   -5.3811 H   0  0  0  0  0  0  0  0  0  0  0  0
    6.7007    2.4514   -6.5780 H   0  0  0  0  0  0  0  0  0  0  0  0
    7.1761    2.6373   -4.6510 H   0  0  0  0  0  0  0  0  0  0  0  0
    8.5708    4.0681   -5.2564 H   0  0  0  0  0  0  0  0  0  0  0  0
    8.1626    3.7925   -6.8999 H   0  0  0  0  0  0  0  0  0  0  0  0
    9.0165    4.0411   -8.8202 H   0  0  0  0  0  0  0  0  0  0  0  0
    9.0851    2.7306  -10.0108 H   0  0  0  0  0  0  0  0  0  0  0  0
   10.5367    3.7475   -9.6478 H   0  0  0  0  0  0  0  0  0  0  0  0
    9.2575    0.4036   -8.6268 H   0  0  0  0  0  0  0  0  0  0  0  0
    9.1789   -3.3159   -2.6536 H   0  0  0  0  0  0  0  0  0  0  0  0
    7.4695   -1.6485   -1.6262 H   0  0  0  0  0  0  0  0  0  0  0  0
    6.6701   -2.9175   -2.6370 H   0  0  0  0  0  0  0  0  0  0  0  0
  1  2  1  0  0  0  0
  1 30  1  0  0  0  0
  1 31  1  0  0  0  0
  1 32  1  0  0  0  0
  2  3  2  0  0  0  0
  2  4  1  0  0  0  0
  4  5  1  0  0  0  0
  4  9  2  0  0  0  0
  5  6  2  0  0  0  0
  5 33  1  0  0  0  0
  6  7  1  0  0  0  0
  6 34  1  0  0  0  0
  7  8  2  0  0  0  0
  7 16  1  0  0  0  0
  8  9  1  0  0  0  0
  8 10  1  0  0  0  0
  9 35  1  0  0  0  0
 10 11  1  0  0  0  0
 10 15  2  0  0  0  0
 11 12  2  0  0  0  0
 11 29  1  0  0  0  0
 12 13  1  0  0  0  0
 12 26  1  0  0  0  0
 13 14  2  0  0  0  0
 13 25  1  0  0  0  0
 14 15  1  0  0  0  0
 14 18  1  0  0  0  0
 15 16  1  0  0  0  0
 16 17  1  0  0  0  0
 17 36  1  0  0  0  0
 17 37  1  0  0  0  0
 17 38  1  0  0  0  0
 18 19  1  0  0  0  0
 18 39  1  0  0  0  0
 18 40  1  0  0  0  0
 19 20  1  0  0  0  0
 19 41  1  0  0  0  0
 19 42  1  0  0  0  0
 20 21  2  0  0  0  0
 20 25  1  0  0  0  0
 21 22  1  0  0  0  0
 22 23  1  0  0  0  0
 22 24  1  0  0  0  0
 23 43  1  0  0  0  0
 23 44  1  0  0  0  0
 23 45  1  0  0  0  0
 24 25  2  0  0  0  0
 24 46  1  0  0  0  0
 26 27  2  0  0  0  0
 26 28  1  0  0  0  0
 28 29  1  0  0  0  0
 28 47  1  0  0  0  0
 29 48  1  0  0  0  0
 29 49  1  0  0  0  0
M  END
$$$$
