CHEMBL4084090
 OpenBabel04072215383D

 42 45  0  0  0  0  0  0  0  0999 V2000
    3.4352   -4.5318    3.3300 C   0  0  0  0  0  0  0  0  0  0  0  0
    4.7664   -4.0272    3.2139 O   0  0  0  0  0  0  0  0  0  0  0  0
    4.9546   -2.6705    3.2443 C   0  0  0  0  0  0  0  0  0  0  0  0
    3.9558   -1.7144    3.4025 C   0  0  0  0  0  0  0  0  0  0  0  0
    4.3109   -0.3605    3.4495 C   0  0  0  0  0  0  0  0  0  0  0  0
    5.6596    0.0547    3.3342 C   0  0  0  0  0  0  0  0  0  0  0  0
    6.6882   -0.8797    3.1594 C   0  0  0  0  0  0  0  0  0  0  0  0
    8.1949   -0.5482    3.0550 C   0  0  0  0  0  0  0  0  0  0  0  0
    8.5262    0.8745    2.9853 N   0  0  0  0  0  0  0  0  0  0  0  0
    9.8847    1.3217    2.9905 C   0  0  0  0  0  0  0  0  0  0  0  0
   10.0146    2.4563    2.2389 N   0  0  0  0  0  0  0  0  0  0  0  0
   10.0678    3.6129    2.9296 C   0  0  0  0  0  0  0  0  0  0  0  0
   10.3409    4.7698    2.2130 N   0  0  0  0  0  0  0  0  0  0  0  0
   10.0005    3.7263    4.2666 N   0  0  0  0  0  0  0  0  0  0  0  0
   10.2169    2.5397    4.8737 C   0  0  0  0  0  0  0  0  0  0  0  0
   10.7576    2.3693    6.1290 N   0  0  0  0  0  0  0  0  0  0  0  0
   12.0966    2.3012    5.7933 C   0  0  0  0  0  0  0  0  0  0  0  0
   13.1971    2.9165    6.4182 C   0  0  0  0  0  0  0  0  0  0  0  0
   14.4365    2.7562    5.8235 C   0  0  0  0  0  0  0  0  0  0  0  0
   14.5659    1.9518    4.6968 C   0  0  0  0  0  0  0  0  0  0  0  0
   15.8244    1.7602    4.1771 O   0  0  0  0  0  0  0  0  0  0  0  0
   13.4397    1.3552    4.0516 C   0  0  0  0  0  0  0  0  0  0  0  0
   12.1253    1.5667    4.5882 C   0  0  0  0  0  0  0  0  0  0  0  0
   10.6674    1.3962    4.1928 C   0  0  0  0  0  0  0  0  0  0  0  0
    6.2978   -2.2452    3.1174 C   0  0  0  0  0  0  0  0  0  0  0  0
    3.5005   -5.6189    3.4625 H   0  0  0  0  0  0  0  0  0  0  0  0
    2.8645   -4.3468    2.4136 H   0  0  0  0  0  0  0  0  0  0  0  0
    2.9094   -4.1373    4.2060 H   0  0  0  0  0  0  0  0  0  0  0  0
    2.9117   -1.9767    3.4983 H   0  0  0  0  0  0  0  0  0  0  0  0
    3.5266    0.3788    3.5880 H   0  0  0  0  0  0  0  0  0  0  0  0
    5.8686    1.1190    3.3956 H   0  0  0  0  0  0  0  0  0  0  0  0
    8.5682   -1.0354    2.1467 H   0  0  0  0  0  0  0  0  0  0  0  0
    8.6821   -0.9944    3.9282 H   0  0  0  0  0  0  0  0  0  0  0  0
    8.1097    1.3185    2.1675 H   0  0  0  0  0  0  0  0  0  0  0  0
   10.6300    4.5057    1.2819 H   0  0  0  0  0  0  0  0  0  0  0  0
   11.0379    5.2849    2.7425 H   0  0  0  0  0  0  0  0  0  0  0  0
   10.4104    1.6223    6.7100 H   0  0  0  0  0  0  0  0  0  0  0  0
   13.0552    3.5705    7.2775 H   0  0  0  0  0  0  0  0  0  0  0  0
   15.2854    3.2907    6.2485 H   0  0  0  0  0  0  0  0  0  0  0  0
   16.4781    2.1850    4.7536 H   0  0  0  0  0  0  0  0  0  0  0  0
   13.5924    0.7897    3.1419 H   0  0  0  0  0  0  0  0  0  0  0  0
    7.0559   -3.0139    2.9924 H   0  0  0  0  0  0  0  0  0  0  0  0
  1  2  1  0  0  0  0
  1 26  1  0  0  0  0
  1 27  1  0  0  0  0
  1 28  1  0  0  0  0
  2  3  1  0  0  0  0
  3  4  1  0  0  0  0
  3 25  2  0  0  0  0
  4  5  2  0  0  0  0
  4 29  1  0  0  0  0
  5  6  1  0  0  0  0
  5 30  1  0  0  0  0
  6  7  2  0  0  0  0
  6 31  1  0  0  0  0
  7  8  1  0  0  0  0
  7 25  1  0  0  0  0
  8  9  1  0  0  0  0
  8 32  1  0  0  0  0
  8 33  1  0  0  0  0
  9 10  1  0  0  0  0
  9 34  1  0  0  0  0
 10 11  1  0  0  0  0
 10 24  2  0  0  0  0
 11 12  2  0  0  0  0
 12 13  1  0  0  0  0
 12 14  1  0  0  0  0
 13 35  1  0  0  0  0
 13 36  1  0  0  0  0
 14 15  2  0  0  0  0
 15 16  1  0  0  0  0
 15 24  1  0  0  0  0
 16 17  1  0  0  0  0
 16 37  1  0  0  0  0
 17 18  1  0  0  0  0
 17 23  2  0  0  0  0
 18 19  2  0  0  0  0
 18 38  1  0  0  0  0
 19 20  1  0  0  0  0
 19 39  1  0  0  0  0
 20 21  1  0  0  0  0
 20 22  2  0  0  0  0
 21 40  1  0  0  0  0
 22 23  1  0  0  0  0
 22 41  1  0  0  0  0
 23 24  1  0  0  0  0
 25 42  1  0  0  0  0
M  END
$$$$
