CHEMBL382979
 OpenBabel04072215373D

 41 44  0  0  0  0  0  0  0  0999 V2000
    1.1249   -0.0850   -1.5222 N   0  0  0  0  0  0  0  0  0  0  0  0
    2.4852   -0.1653   -1.2540 C   0  0  0  0  0  0  0  0  0  0  0  0
    3.2011    0.9061   -1.6444 N   0  0  0  0  0  0  0  0  0  0  0  0
    4.5127    0.9334   -1.3884 C   0  0  0  0  0  0  0  0  0  0  0  0
    5.2341    0.0007   -0.7647 N   0  0  0  0  0  0  0  0  0  0  0  0
    4.4974   -1.0621   -0.4052 C   0  0  0  0  0  0  0  0  0  0  0  0
    5.2427   -2.3524    0.4096 S   0  0  0  0  0  0  0  0  0  0  0  0
    3.7795   -3.2157    0.4852 C   0  0  0  0  0  0  0  0  0  0  0  0
    2.7096   -2.5383   -0.0819 C   0  0  0  0  0  0  0  0  0  0  0  0
    1.3731   -3.1431   -0.0402 C   0  0  0  0  0  0  0  0  0  0  0  0
    0.9643   -3.8542    1.0939 C   0  0  0  0  0  0  0  0  0  0  0  0
   -0.3159   -4.4046    1.1808 C   0  0  0  0  0  0  0  0  0  0  0  0
   -1.2472   -4.2176    0.1607 C   0  0  0  0  0  0  0  0  0  0  0  0
   -2.5679   -4.7126    0.2205 N   0  0  0  0  0  0  0  0  0  0  0  0
   -3.1542   -5.3257    1.3165 C   0  0  0  0  0  0  0  0  0  0  0  0
   -2.6603   -5.4051    2.4344 O   0  0  0  0  0  0  0  0  0  0  0  0
   -4.3654   -5.9133    0.9768 N   0  0  0  0  0  0  0  0  0  0  0  0
   -5.1232   -6.6232    1.9364 C   0  0  0  0  0  0  0  0  0  0  0  0
   -5.6782   -7.8523    1.5704 C   0  0  0  0  0  0  0  0  0  0  0  0
   -6.3762   -8.6128    2.5116 C   0  0  0  0  0  0  0  0  0  0  0  0
   -6.5623   -8.1254    3.8054 C   0  0  0  0  0  0  0  0  0  0  0  0
   -6.0377   -6.8837    4.1583 C   0  0  0  0  0  0  0  0  0  0  0  0
   -6.2917   -6.2720    5.7475 Cl  0  0  0  0  0  0  0  0  0  0  0  0
   -5.3125   -6.1347    3.2337 C   0  0  0  0  0  0  0  0  0  0  0  0
   -0.8428   -3.5312   -0.9875 C   0  0  0  0  0  0  0  0  0  0  0  0
    0.4660   -3.0334   -1.1005 C   0  0  0  0  0  0  0  0  0  0  0  0
    3.1338   -1.2463   -0.6113 C   0  0  0  0  0  0  0  0  0  0  0  0
    0.8928    0.8644   -1.7946 H   0  0  0  0  0  0  0  0  0  0  0  0
    0.5454   -0.4705   -0.7869 H   0  0  0  0  0  0  0  0  0  0  0  0
    5.0474    1.8173   -1.7129 H   0  0  0  0  0  0  0  0  0  0  0  0
    3.7818   -4.1878    0.9601 H   0  0  0  0  0  0  0  0  0  0  0  0
    1.6283   -3.9960    1.9444 H   0  0  0  0  0  0  0  0  0  0  0  0
   -0.5468   -4.9674    2.0793 H   0  0  0  0  0  0  0  0  0  0  0  0
   -3.1819   -4.4832   -0.5478 H   0  0  0  0  0  0  0  0  0  0  0  0
   -4.4086   -6.2563    0.0283 H   0  0  0  0  0  0  0  0  0  0  0  0
   -5.5217   -8.2602    0.5755 H   0  0  0  0  0  0  0  0  0  0  0  0
   -6.7630   -9.5917    2.2406 H   0  0  0  0  0  0  0  0  0  0  0  0
   -7.1108   -8.7167    4.5335 H   0  0  0  0  0  0  0  0  0  0  0  0
   -4.8976   -5.1748    3.5303 H   0  0  0  0  0  0  0  0  0  0  0  0
   -1.5295   -3.3721   -1.8147 H   0  0  0  0  0  0  0  0  0  0  0  0
    0.7560   -2.5458   -2.0297 H   0  0  0  0  0  0  0  0  0  0  0  0
  1  2  1  0  0  0  0
  1 28  1  0  0  0  0
  1 29  1  0  0  0  0
  2  3  1  0  0  0  0
  2 27  2  0  0  0  0
  3  4  2  0  0  0  0
  4  5  1  0  0  0  0
  4 30  1  0  0  0  0
  5  6  2  0  0  0  0
  6  7  1  0  0  0  0
  6 27  1  0  0  0  0
  7  8  1  0  0  0  0
  8  9  2  0  0  0  0
  8 31  1  0  0  0  0
  9 10  1  0  0  0  0
  9 27  1  0  0  0  0
 10 11  1  0  0  0  0
 10 26  2  0  0  0  0
 11 12  2  0  0  0  0
 11 32  1  0  0  0  0
 12 13  1  0  0  0  0
 12 33  1  0  0  0  0
 13 14  1  0  0  0  0
 13 25  2  0  0  0  0
 14 15  1  0  0  0  0
 14 34  1  0  0  0  0
 15 16  2  0  0  0  0
 15 17  1  0  0  0  0
 17 18  1  0  0  0  0
 17 35  1  0  0  0  0
 18 19  1  0  0  0  0
 18 24  2  0  0  0  0
 19 20  2  0  0  0  0
 19 36  1  0  0  0  0
 20 21  1  0  0  0  0
 20 37  1  0  0  0  0
 21 22  2  0  0  0  0
 21 38  1  0  0  0  0
 22 23  1  0  0  0  0
 22 24  1  0  0  0  0
 24 39  1  0  0  0  0
 25 26  1  0  0  0  0
 25 40  1  0  0  0  0
 26 41  1  0  0  0  0
M  END
$$$$
