CHEMBL181122
 OpenBabel04072215363D

 45 47  0  0  0  0  0  0  0  0999 V2000
    0.8794    0.4855    2.0931 C   0  0  0  0  0  0  0  0  0  0  0  0
    2.3955    0.4753    2.0134 C   0  0  0  0  0  0  0  0  0  0  0  0
    2.9160   -0.8184    1.3816 C   0  0  0  0  0  0  0  0  0  0  0  0
    4.4215   -0.8155    1.2713 C   0  0  0  0  0  0  0  0  0  0  0  0
    5.2123   -0.7601    2.4280 C   0  0  0  0  0  0  0  0  0  0  0  0
    6.6085   -0.7207    2.3454 C   0  0  0  0  0  0  0  0  0  0  0  0
    7.2570   -0.7494    1.1051 C   0  0  0  0  0  0  0  0  0  0  0  0
    8.6666   -0.7662    1.0661 N   0  0  0  0  0  0  0  0  0  0  0  0
    9.4728   -1.2815    0.0692 C   0  0  0  0  0  0  0  0  0  0  0  0
    8.9591   -1.9628   -0.9120 N   0  0  0  0  0  0  0  0  0  0  0  0
    9.7540   -2.4927   -1.8874 C   0  0  0  0  0  0  0  0  0  0  0  0
   11.0351   -2.3914   -1.9750 N   0  0  0  0  0  0  0  0  0  0  0  0
   11.5859   -1.6929   -0.9739 N   0  0  0  0  0  0  0  0  0  0  0  0
   12.9159   -1.4571   -0.8454 C   0  0  0  0  0  0  0  0  0  0  0  0
   13.1402   -0.7221    0.3055 C   0  0  0  0  0  0  0  0  0  0  0  0
   14.4712   -0.3062    0.7535 C   0  0  0  0  0  0  0  0  0  0  0  0
   14.6810    0.3443    1.7690 O   0  0  0  0  0  0  0  0  0  0  0  0
   15.4512   -0.7400   -0.0951 O   0  0  0  0  0  0  0  0  0  0  0  0
   16.7802   -0.3919    0.2860 C   0  0  0  0  0  0  0  0  0  0  0  0
   11.8384   -0.4977    0.8982 C   0  0  0  0  0  0  0  0  0  0  0  0
   11.5513    0.2526    2.1541 C   0  0  0  0  0  0  0  0  0  0  0  0
   10.9095   -1.1245    0.0659 C   0  0  0  0  0  0  0  0  0  0  0  0
    6.4603   -0.8115   -0.0457 C   0  0  0  0  0  0  0  0  0  0  0  0
    5.0677   -0.8534    0.0368 C   0  0  0  0  0  0  0  0  0  0  0  0
    4.3262   -0.9303   -1.1093 O   0  0  0  0  0  0  0  0  0  0  0  0
    0.5330    1.4221    2.5406 H   0  0  0  0  0  0  0  0  0  0  0  0
    0.5161   -0.3422    2.7104 H   0  0  0  0  0  0  0  0  0  0  0  0
    0.4332    0.3971    1.0977 H   0  0  0  0  0  0  0  0  0  0  0  0
    2.8004    0.5997    3.0244 H   0  0  0  0  0  0  0  0  0  0  0  0
    2.7346    1.3390    1.4282 H   0  0  0  0  0  0  0  0  0  0  0  0
    2.4522   -0.9441    0.3962 H   0  0  0  0  0  0  0  0  0  0  0  0
    2.6080   -1.6891    1.9734 H   0  0  0  0  0  0  0  0  0  0  0  0
    4.7426   -0.7457    3.4091 H   0  0  0  0  0  0  0  0  0  0  0  0
    7.1802   -0.6807    3.2692 H   0  0  0  0  0  0  0  0  0  0  0  0
    9.1101   -0.5254    1.9392 H   0  0  0  0  0  0  0  0  0  0  0  0
    9.2234   -3.0623   -2.6713 H   0  0  0  0  0  0  0  0  0  0  0  0
   13.6051   -1.8395   -1.5858 H   0  0  0  0  0  0  0  0  0  0  0  0
   17.4596   -0.7913   -0.4735 H   0  0  0  0  0  0  0  0  0  0  0  0
   17.0338   -0.8451    1.2481 H   0  0  0  0  0  0  0  0  0  0  0  0
   16.8991    0.6944    0.3186 H   0  0  0  0  0  0  0  0  0  0  0  0
   12.4503    0.6427    2.6343 H   0  0  0  0  0  0  0  0  0  0  0  0
   11.0584   -0.4014    2.8811 H   0  0  0  0  0  0  0  0  0  0  0  0
   10.8937    1.1041    1.9483 H   0  0  0  0  0  0  0  0  0  0  0  0
    6.9240   -0.8091   -1.0261 H   0  0  0  0  0  0  0  0  0  0  0  0
    4.9310   -0.9779   -1.8682 H   0  0  0  0  0  0  0  0  0  0  0  0
  1  2  1  0  0  0  0
  1 26  1  0  0  0  0
  1 27  1  0  0  0  0
  1 28  1  0  0  0  0
  2  3  1  0  0  0  0
  2 29  1  0  0  0  0
  2 30  1  0  0  0  0
  3  4  1  0  0  0  0
  3 31  1  0  0  0  0
  3 32  1  0  0  0  0
  4  5  1  0  0  0  0
  4 24  2  0  0  0  0
  5  6  2  0  0  0  0
  5 33  1  0  0  0  0
  6  7  1  0  0  0  0
  6 34  1  0  0  0  0
  7  8  1  0  0  0  0
  7 23  2  0  0  0  0
  8  9  1  0  0  0  0
  8 35  1  0  0  0  0
  9 10  2  0  0  0  0
  9 22  1  0  0  0  0
 10 11  1  0  0  0  0
 11 12  2  0  0  0  0
 11 36  1  0  0  0  0
 12 13  1  0  0  0  0
 13 14  1  0  0  0  0
 13 22  1  0  0  0  0
 14 15  2  0  0  0  0
 14 37  1  0  0  0  0
 15 16  1  0  0  0  0
 15 20  1  0  0  0  0
 16 17  2  0  0  0  0
 16 18  1  0  0  0  0
 18 19  1  0  0  0  0
 19 38  1  0  0  0  0
 19 39  1  0  0  0  0
 19 40  1  0  0  0  0
 20 21  1  0  0  0  0
 20 22  2  0  0  0  0
 21 41  1  0  0  0  0
 21 42  1  0  0  0  0
 21 43  1  0  0  0  0
 23 24  1  0  0  0  0
 23 44  1  0  0  0  0
 24 25  1  0  0  0  0
 25 45  1  0  0  0  0
M  END
$$$$
