CHEMBL1241473
 OpenBabel04072215363D

 52 54  0  0  0  0  0  0  0  0999 V2000
    2.5975    1.3954   -1.9139 C   0  0  0  0  0  0  0  0  0  0  0  0
    3.9429    1.0729   -1.5618 O   0  0  0  0  0  0  0  0  0  0  0  0
    4.2892   -0.2541   -1.6116 C   0  0  0  0  0  0  0  0  0  0  0  0
    3.5973   -1.1557   -2.4226 C   0  0  0  0  0  0  0  0  0  0  0  0
    3.9320   -2.5083   -2.5360 C   0  0  0  0  0  0  0  0  0  0  0  0
    3.2232   -3.3924   -3.3703 N   0  0  0  0  0  0  0  0  0  0  0  0
    2.1641   -3.0964   -4.2401 C   0  0  0  0  0  0  0  0  0  0  0  0
    1.2805   -4.0687   -4.4707 N   0  0  0  0  0  0  0  0  0  0  0  0
    0.2098   -3.7272   -5.2194 C   0  0  0  0  0  0  0  0  0  0  0  0
    0.0049   -2.4534   -5.7069 C   0  0  0  0  0  0  0  0  0  0  0  0
   -1.1266   -2.2065   -6.5402 N   0  3  0  0  0  0  0  0  0  0  0  0
   -1.1904   -2.8536   -7.5955 O   0  0  0  0  0  0  0  0  0  0  0  0
   -1.9837   -1.4258   -6.1166 O   0  5  0  0  0  0  0  0  0  0  0  0
    0.9540   -1.5024   -5.4560 C   0  0  0  0  0  0  0  0  0  0  0  0
    0.8393   -0.1419   -5.8459 N   0  0  0  0  0  0  0  0  0  0  0  0
    1.9527    0.7485   -5.9820 C   0  0  0  0  0  0  0  0  0  0  0  0
    3.1297    0.2745   -6.5898 C   0  0  0  0  0  0  0  0  0  0  0  0
    4.2571    1.0825   -6.7382 C   0  0  0  0  0  0  0  0  0  0  0  0
    4.2211    2.4054   -6.3148 C   0  0  0  0  0  0  0  0  0  0  0  0
    3.0513    2.9240   -5.7582 C   0  0  0  0  0  0  0  0  0  0  0  0
    1.9097    2.1133   -5.6005 C   0  0  0  0  0  0  0  0  0  0  0  0
    0.7034    2.6622   -4.9145 C   0  0  0  0  0  0  0  0  0  0  0  0
    0.5009    4.0181   -4.9362 N   0  0  0  0  0  0  0  0  0  0  0  0
   -0.0808    1.9216   -4.3363 O   0  0  0  0  0  0  0  0  0  0  0  0
    2.0479   -1.8639   -4.7557 N   0  0  0  0  0  0  0  0  0  0  0  0
    5.0612   -2.9496   -1.8481 C   0  0  0  0  0  0  0  0  0  0  0  0
    5.8058   -2.0622   -1.0529 C   0  0  0  0  0  0  0  0  0  0  0  0
    6.9206   -2.4588   -0.3459 O   0  0  0  0  0  0  0  0  0  0  0  0
    7.7006   -3.4828   -0.9528 C   0  0  0  0  0  0  0  0  0  0  0  0
    5.3996   -0.7174   -0.8964 C   0  0  0  0  0  0  0  0  0  0  0  0
    6.1954    0.0514   -0.0774 O   0  0  0  0  0  0  0  0  0  0  0  0
    5.5530    1.1048    0.6307 C   0  0  0  0  0  0  0  0  0  0  0  0
    2.4468    2.4652   -1.7490 H   0  0  0  0  0  0  0  0  0  0  0  0
    1.8865    0.8460   -1.2872 H   0  0  0  0  0  0  0  0  0  0  0  0
    2.4051    1.2101   -2.9726 H   0  0  0  0  0  0  0  0  0  0  0  0
    2.7551   -0.7869   -2.9870 H   0  0  0  0  0  0  0  0  0  0  0  0
    3.1069   -4.3271   -3.0062 H   0  0  0  0  0  0  0  0  0  0  0  0
   -0.4914   -4.5360   -5.4153 H   0  0  0  0  0  0  0  0  0  0  0  0
    0.1039    0.3085   -5.2798 H   0  0  0  0  0  0  0  0  0  0  0  0
    3.1880   -0.7561   -6.9343 H   0  0  0  0  0  0  0  0  0  0  0  0
    5.1643    0.6668   -7.1694 H   0  0  0  0  0  0  0  0  0  0  0  0
    5.1110    3.0236   -6.4032 H   0  0  0  0  0  0  0  0  0  0  0  0
    3.0696    3.9531   -5.4101 H   0  0  0  0  0  0  0  0  0  0  0  0
    1.0282    4.6639   -5.5053 H   0  0  0  0  0  0  0  0  0  0  0  0
   -0.3429    4.3629   -4.4964 H   0  0  0  0  0  0  0  0  0  0  0  0
    5.3561   -3.9900   -1.9391 H   0  0  0  0  0  0  0  0  0  0  0  0
    8.6799   -3.4902   -0.4642 H   0  0  0  0  0  0  0  0  0  0  0  0
    7.8619   -3.2961   -2.0200 H   0  0  0  0  0  0  0  0  0  0  0  0
    7.2429   -4.4636   -0.7916 H   0  0  0  0  0  0  0  0  0  0  0  0
    6.2213    1.4120    1.4419 H   0  0  0  0  0  0  0  0  0  0  0  0
    4.6081    0.7829    1.0834 H   0  0  0  0  0  0  0  0  0  0  0  0
    5.4168    1.9814   -0.0069 H   0  0  0  0  0  0  0  0  0  0  0  0
  1  2  1  0  0  0  0
  1 33  1  0  0  0  0
  1 34  1  0  0  0  0
  1 35  1  0  0  0  0
  2  3  1  0  0  0  0
  3  4  1  0  0  0  0
  3 30  2  0  0  0  0
  4  5  2  0  0  0  0
  4 36  1  0  0  0  0
  5  6  1  0  0  0  0
  5 26  1  0  0  0  0
  6  7  1  0  0  0  0
  6 37  1  0  0  0  0
  7  8  1  0  0  0  0
  7 25  2  0  0  0  0
  8  9  2  0  0  0  0
  9 10  1  0  0  0  0
  9 38  1  0  0  0  0
 10 11  1  0  0  0  0
 10 14  2  0  0  0  0
 11 12  2  0  0  0  0
 11 13  1  0  0  0  0
 14 15  1  0  0  0  0
 14 25  1  0  0  0  0
 15 16  1  0  0  0  0
 15 39  1  0  0  0  0
 16 17  1  0  0  0  0
 16 21  2  0  0  0  0
 17 18  2  0  0  0  0
 17 40  1  0  0  0  0
 18 19  1  0  0  0  0
 18 41  1  0  0  0  0
 19 20  2  0  0  0  0
 19 42  1  0  0  0  0
 20 21  1  0  0  0  0
 20 43  1  0  0  0  0
 21 22  1  0  0  0  0
 22 23  1  0  0  0  0
 22 24  2  0  0  0  0
 23 44  1  0  0  0  0
 23 45  1  0  0  0  0
 26 27  2  0  0  0  0
 26 46  1  0  0  0  0
 27 28  1  0  0  0  0
 27 30  1  0  0  0  0
 28 29  1  0  0  0  0
 29 47  1  0  0  0  0
 29 48  1  0  0  0  0
 29 49  1  0  0  0  0
 30 31  1  0  0  0  0
 31 32  1  0  0  0  0
 32 50  1  0  0  0  0
 32 51  1  0  0  0  0
 32 52  1  0  0  0  0
M  CHG  2  11   1  13  -1
M  END
$$$$
