CHEMBL4171543
 OpenBabel04072215383D

 45 47  0  0  0  0  0  0  0  0999 V2000
    1.1615   -0.0469    0.0134 C   0  0  0  0  0  0  0  0  0  0  0  0
    2.4947   -0.1341    0.0946 C   0  0  0  0  0  0  0  0  0  0  0  0
    3.1571   -1.4643    0.0579 C   0  0  0  0  0  0  0  0  0  0  0  0
    2.5403   -2.4730   -0.2652 O   0  0  0  0  0  0  0  0  0  0  0  0
    4.4625   -1.4121    0.4839 N   0  0  0  0  0  0  0  0  0  0  0  0
    5.2679   -2.5449    0.6076 C   0  0  0  0  0  0  0  0  0  0  0  0
    5.2073   -3.5867   -0.3035 C   0  0  0  0  0  0  0  0  0  0  0  0
    5.9959   -4.7123   -0.0831 C   0  0  0  0  0  0  0  0  0  0  0  0
    6.8247   -4.7966    1.0434 C   0  0  0  0  0  0  0  0  0  0  0  0
    7.6653   -5.9827    1.2890 C   0  0  0  0  0  0  0  0  0  0  0  0
    8.2828   -6.6276    0.2090 C   0  0  0  0  0  0  0  0  0  0  0  0
    9.0673   -7.7698    0.3846 C   0  0  0  0  0  0  0  0  0  0  0  0
    9.2834   -8.2998    1.6539 C   0  0  0  0  0  0  0  0  0  0  0  0
   10.0746   -9.4604    1.8705 N   0  0  0  0  0  0  0  0  0  0  0  0
   10.8297  -10.1081    0.9055 C   0  0  0  0  0  0  0  0  0  0  0  0
   11.0233   -9.6987   -0.2345 O   0  0  0  0  0  0  0  0  0  0  0  0
   11.3159  -11.3275    1.3575 N   0  0  0  0  0  0  0  0  0  0  0  0
   12.0908  -12.1525    0.5040 C   0  0  0  0  0  0  0  0  0  0  0  0
   11.8067  -13.5194    0.4531 C   0  0  0  0  0  0  0  0  0  0  0  0
   12.4882  -14.3439   -0.4470 C   0  0  0  0  0  0  0  0  0  0  0  0
   13.4875  -13.8145   -1.2644 C   0  0  0  0  0  0  0  0  0  0  0  0
   13.8006  -12.4603   -1.1811 C   0  0  0  0  0  0  0  0  0  0  0  0
   15.0511  -11.8122   -2.1717 Cl  0  0  0  0  0  0  0  0  0  0  0  0
   13.1049  -11.6274   -0.3065 C   0  0  0  0  0  0  0  0  0  0  0  0
    8.6889   -7.6686    2.7454 C   0  0  0  0  0  0  0  0  0  0  0  0
    7.8820   -6.5239    2.5667 C   0  0  0  0  0  0  0  0  0  0  0  0
    6.8244   -3.6782    1.8749 C   0  0  0  0  0  0  0  0  0  0  0  0
    6.1007   -2.5455    1.6657 N   0  0  0  0  0  0  0  0  0  0  0  0
    0.6620    0.9151    0.0100 H   0  0  0  0  0  0  0  0  0  0  0  0
    0.5370   -0.9362   -0.0546 H   0  0  0  0  0  0  0  0  0  0  0  0
    3.1127    0.7524    0.1555 H   0  0  0  0  0  0  0  0  0  0  0  0
    4.7641   -0.6378    1.0565 H   0  0  0  0  0  0  0  0  0  0  0  0
    4.5753   -3.5359   -1.1844 H   0  0  0  0  0  0  0  0  0  0  0  0
    5.9380   -5.5275   -0.8017 H   0  0  0  0  0  0  0  0  0  0  0  0
    8.1706   -6.2514   -0.8060 H   0  0  0  0  0  0  0  0  0  0  0  0
    9.4804   -8.2104   -0.5131 H   0  0  0  0  0  0  0  0  0  0  0  0
   10.2143   -9.7515    2.8264 H   0  0  0  0  0  0  0  0  0  0  0  0
   10.7064  -11.8019    2.0082 H   0  0  0  0  0  0  0  0  0  0  0  0
   11.0124  -13.9464    1.0586 H   0  0  0  0  0  0  0  0  0  0  0  0
   12.2269  -15.3961   -0.5256 H   0  0  0  0  0  0  0  0  0  0  0  0
   14.0126  -14.4578   -1.9656 H   0  0  0  0  0  0  0  0  0  0  0  0
   13.3525  -10.5692   -0.2670 H   0  0  0  0  0  0  0  0  0  0  0  0
    8.8213   -8.0527    3.7567 H   0  0  0  0  0  0  0  0  0  0  0  0
    7.4134   -6.0826    3.4460 H   0  0  0  0  0  0  0  0  0  0  0  0
    7.4371   -3.6460    2.7726 H   0  0  0  0  0  0  0  0  0  0  0  0
  1  2  2  0  0  0  0
  1 29  1  0  0  0  0
  1 30  1  0  0  0  0
  2  3  1  0  0  0  0
  2 31  1  0  0  0  0
  3  4  2  0  0  0  0
  3  5  1  0  0  0  0
  5  6  1  0  0  0  0
  5 32  1  0  0  0  0
  6  7  1  0  0  0  0
  6 28  2  0  0  0  0
  7  8  2  0  0  0  0
  7 33  1  0  0  0  0
  8  9  1  0  0  0  0
  8 34  1  0  0  0  0
  9 10  1  0  0  0  0
  9 27  2  0  0  0  0
 10 11  1  0  0  0  0
 10 26  2  0  0  0  0
 11 12  2  0  0  0  0
 11 35  1  0  0  0  0
 12 13  1  0  0  0  0
 12 36  1  0  0  0  0
 13 14  1  0  0  0  0
 13 25  2  0  0  0  0
 14 15  1  0  0  0  0
 14 37  1  0  0  0  0
 15 16  2  0  0  0  0
 15 17  1  0  0  0  0
 17 18  1  0  0  0  0
 17 38  1  0  0  0  0
 18 19  1  0  0  0  0
 18 24  2  0  0  0  0
 19 20  2  0  0  0  0
 19 39  1  0  0  0  0
 20 21  1  0  0  0  0
 20 40  1  0  0  0  0
 21 22  2  0  0  0  0
 21 41  1  0  0  0  0
 22 23  1  0  0  0  0
 22 24  1  0  0  0  0
 24 42  1  0  0  0  0
 25 26  1  0  0  0  0
 25 43  1  0  0  0  0
 26 44  1  0  0  0  0
 27 28  1  0  0  0  0
 27 45  1  0  0  0  0
M  END
$$$$
