CHEMBL3397922
 OpenBabel04072215363D

 57 59  0  0  0  0  0  0  0  0999 V2000
    1.2070   -0.0727   -0.4176 C   0  0  0  0  0  0  0  0  0  0  0  0
    2.4925    0.0507    0.1617 O   0  0  0  0  0  0  0  0  0  0  0  0
    3.1297    1.2630    0.0856 C   0  0  0  0  0  0  0  0  0  0  0  0
    2.5861    2.4161   -0.4684 C   0  0  0  0  0  0  0  0  0  0  0  0
    3.3491    3.5832   -0.5268 C   0  0  0  0  0  0  0  0  0  0  0  0
    4.6705    3.6091   -0.0415 C   0  0  0  0  0  0  0  0  0  0  0  0
    5.4513    4.8577   -0.3451 C   0  0  0  0  0  0  0  0  0  0  0  0
    6.5637    4.7399   -0.8427 O   0  0  0  0  0  0  0  0  0  0  0  0
    4.8528    6.0612    0.0135 N   0  0  0  0  0  0  0  0  0  0  0  0
    5.5468    7.2937   -0.0913 C   0  0  0  0  0  0  0  0  0  0  0  0
    6.3611    7.5805   -1.1851 C   0  0  0  0  0  0  0  0  0  0  0  0
    7.1089    8.7673   -1.2370 C   0  0  0  0  0  0  0  0  0  0  0  0
    7.0589    9.6908   -0.1762 C   0  0  0  0  0  0  0  0  0  0  0  0
    7.8057   10.8359   -0.1259 O   0  0  0  0  0  0  0  0  0  0  0  0
    8.5930   11.1381   -1.2836 C   0  0  0  0  0  0  0  0  0  0  0  0
    9.2966   12.4925   -1.0979 C   0  0  0  0  0  0  0  0  0  0  0  0
   10.1649   12.8688   -2.2342 N   0  0  0  0  0  0  0  0  0  0  0  0
    9.4139   13.0106   -3.4835 C   0  0  0  0  0  0  0  0  0  0  0  0
   10.8659   14.1212   -1.9378 C   0  0  0  0  0  0  0  0  0  0  0  0
    6.2204    9.3972    0.9066 C   0  0  0  0  0  0  0  0  0  0  0  0
    6.1472   10.4515    2.2795 Cl  0  0  0  0  0  0  0  0  0  0  0  0
    5.4376    8.2285    0.9316 C   0  0  0  0  0  0  0  0  0  0  0  0
    5.2596    2.4601    0.5693 C   0  0  0  0  0  0  0  0  0  0  0  0
    6.6535    2.4464    1.1194 C   0  0  0  0  0  0  0  0  0  0  0  0
    7.1855    3.5416    1.8320 C   0  0  0  0  0  0  0  0  0  0  0  0
    8.5059    3.5483    2.3068 C   0  0  0  0  0  0  0  0  0  0  0  0
    9.3029    2.4158    2.1723 C   0  0  0  0  0  0  0  0  0  0  0  0
    8.7812    1.3044    1.5250 C   0  0  0  0  0  0  0  0  0  0  0  0
    9.4904    0.1439    1.4256 O   0  0  0  0  0  0  0  0  0  0  0  0
    7.5064    1.3339    0.9619 C   0  0  0  0  0  0  0  0  0  0  0  0
    4.4322    1.3025    0.6249 C   0  0  0  0  0  0  0  0  0  0  0  0
    4.8425    0.1251    1.2180 O   0  0  0  0  0  0  0  0  0  0  0  0
    0.8896   -1.1142   -0.3051 H   0  0  0  0  0  0  0  0  0  0  0  0
    1.2232    0.1543   -1.4897 H   0  0  0  0  0  0  0  0  0  0  0  0
    0.4830    0.5558    0.1108 H   0  0  0  0  0  0  0  0  0  0  0  0
    1.5850    2.4321   -0.8862 H   0  0  0  0  0  0  0  0  0  0  0  0
    2.9220    4.4585   -1.0155 H   0  0  0  0  0  0  0  0  0  0  0  0
    4.0565    6.0249    0.6396 H   0  0  0  0  0  0  0  0  0  0  0  0
    6.4416    6.8829   -2.0190 H   0  0  0  0  0  0  0  0  0  0  0  0
    7.7304    8.9190   -2.1119 H   0  0  0  0  0  0  0  0  0  0  0  0
    7.9258   11.1922   -2.1498 H   0  0  0  0  0  0  0  0  0  0  0  0
    9.3523   10.3613   -1.4323 H   0  0  0  0  0  0  0  0  0  0  0  0
    9.9054   12.4254   -0.1859 H   0  0  0  0  0  0  0  0  0  0  0  0
    8.5457   13.2696   -0.8994 H   0  0  0  0  0  0  0  0  0  0  0  0
    8.9856   12.0541   -3.8017 H   0  0  0  0  0  0  0  0  0  0  0  0
   10.0767   13.3187   -4.3011 H   0  0  0  0  0  0  0  0  0  0  0  0
    8.6058   13.7455   -3.3978 H   0  0  0  0  0  0  0  0  0  0  0  0
   11.4780   14.0196   -1.0349 H   0  0  0  0  0  0  0  0  0  0  0  0
   10.1724   14.9585   -1.7945 H   0  0  0  0  0  0  0  0  0  0  0  0
   11.5518   14.3789   -2.7526 H   0  0  0  0  0  0  0  0  0  0  0  0
    4.8208    8.0253    1.8071 H   0  0  0  0  0  0  0  0  0  0  0  0
    6.5947    4.4354    2.0018 H   0  0  0  0  0  0  0  0  0  0  0  0
    8.9051    4.4439    2.7734 H   0  0  0  0  0  0  0  0  0  0  0  0
   10.3150    2.4244    2.5587 H   0  0  0  0  0  0  0  0  0  0  0  0
   10.3273    0.2487    1.9068 H   0  0  0  0  0  0  0  0  0  0  0  0
    7.1841    0.4591    0.3982 H   0  0  0  0  0  0  0  0  0  0  0  0
    5.5616    0.2993    1.8424 H   0  0  0  0  0  0  0  0  0  0  0  0
  1  2  1  0  0  0  0
  1 33  1  0  0  0  0
  1 34  1  0  0  0  0
  1 35  1  0  0  0  0
  2  3  1  0  0  0  0
  3  4  1  0  0  0  0
  3 31  2  0  0  0  0
  4  5  2  0  0  0  0
  4 36  1  0  0  0  0
  5  6  1  0  0  0  0
  5 37  1  0  0  0  0
  6  7  1  0  0  0  0
  6 23  2  0  0  0  0
  7  8  2  0  0  0  0
  7  9  1  0  0  0  0
  9 10  1  0  0  0  0
  9 38  1  0  0  0  0
 10 11  1  0  0  0  0
 10 22  2  0  0  0  0
 11 12  2  0  0  0  0
 11 39  1  0  0  0  0
 12 13  1  0  0  0  0
 12 40  1  0  0  0  0
 13 14  1  0  0  0  0
 13 20  2  0  0  0  0
 14 15  1  0  0  0  0
 15 16  1  0  0  0  0
 15 41  1  0  0  0  0
 15 42  1  0  0  0  0
 16 17  1  0  0  0  0
 16 43  1  0  0  0  0
 16 44  1  0  0  0  0
 17 18  1  0  0  0  0
 17 19  1  0  0  0  0
 18 45  1  0  0  0  0
 18 46  1  0  0  0  0
 18 47  1  0  0  0  0
 19 48  1  0  0  0  0
 19 49  1  0  0  0  0
 19 50  1  0  0  0  0
 20 21  1  0  0  0  0
 20 22  1  0  0  0  0
 22 51  1  0  0  0  0
 23 24  1  0  0  0  0
 23 31  1  0  0  0  0
 24 25  1  0  0  0  0
 24 30  2  0  0  0  0
 25 26  2  0  0  0  0
 25 52  1  0  0  0  0
 26 27  1  0  0  0  0
 26 53  1  0  0  0  0
 27 28  2  0  0  0  0
 27 54  1  0  0  0  0
 28 29  1  0  0  0  0
 28 30  1  0  0  0  0
 29 55  1  0  0  0  0
 30 56  1  0  0  0  0
 31 32  1  0  0  0  0
 32 57  1  0  0  0  0
M  END
$$$$
