CHEMBL271181
 OpenBabel04072215363D

 49 52  0  0  0  0  0  0  0  0999 V2000
    1.7182    3.0075    2.6605 C   0  0  0  0  0  0  0  0  0  0  0  0
    3.0971    2.7145    2.3759 N   0  0  0  0  0  0  0  0  0  0  0  0
    3.4663    2.0431    1.2285 C   0  0  0  0  0  0  0  0  0  0  0  0
    2.6690    1.6663    0.3802 O   0  0  0  0  0  0  0  0  0  0  0  0
    4.9394    1.8162    1.0783 C   0  0  0  0  0  0  0  0  0  0  0  0
    5.4037    1.2166   -0.0779 C   0  0  0  0  0  0  0  0  0  0  0  0
    6.7820    1.1437   -0.2715 C   0  0  0  0  0  0  0  0  0  0  0  0
    7.3729    0.6554   -1.4184 O   0  0  0  0  0  0  0  0  0  0  0  0
    6.7256    0.8042   -2.6262 C   0  0  0  0  0  0  0  0  0  0  0  0
    5.9562    1.9110   -2.9684 C   0  0  0  0  0  0  0  0  0  0  0  0
    5.2645    1.9399   -4.1828 C   0  0  0  0  0  0  0  0  0  0  0  0
    5.3960    0.9095   -5.1454 C   0  0  0  0  0  0  0  0  0  0  0  0
    4.7370    0.8865   -6.4151 C   0  0  0  0  0  0  0  0  0  0  0  0
    3.8248    1.9929   -6.8618 C   0  0  0  0  0  0  0  0  0  0  0  0
    4.1141    3.1523   -6.5863 O   0  0  0  0  0  0  0  0  0  0  0  0
    2.6916    1.5847   -7.5534 N   0  0  0  0  0  0  0  0  0  0  0  0
    1.6716    2.4161   -8.0697 C   0  0  0  0  0  0  0  0  0  0  0  0
    1.7526    3.8108   -8.1163 C   0  0  0  0  0  0  0  0  0  0  0  0
    0.6697    4.5754   -8.5657 C   0  0  0  0  0  0  0  0  0  0  0  0
   -0.4983    3.9460   -8.9824 C   0  0  0  0  0  0  0  0  0  0  0  0
   -1.8488    4.8869   -9.4810 Cl  0  0  0  0  0  0  0  0  0  0  0  0
   -0.5792    2.5565   -8.9875 C   0  0  0  0  0  0  0  0  0  0  0  0
    0.5071    1.7940   -8.5419 C   0  0  0  0  0  0  0  0  0  0  0  0
    4.9730   -0.1636   -7.3164 C   0  0  0  0  0  0  0  0  0  0  0  0
    5.8309   -1.2040   -6.9795 C   0  0  0  0  0  0  0  0  0  0  0  0
    6.4620   -1.2088   -5.7377 C   0  0  0  0  0  0  0  0  0  0  0  0
    6.2600   -0.1687   -4.8173 C   0  0  0  0  0  0  0  0  0  0  0  0
    6.9056   -0.2117   -3.5647 C   0  0  0  0  0  0  0  0  0  0  0  0
    7.6339    1.5628    0.7422 C   0  0  0  0  0  0  0  0  0  0  0  0
    7.0753    2.1082    1.8897 C   0  0  0  0  0  0  0  0  0  0  0  0
    5.7468    2.2727    2.0780 N   0  0  0  0  0  0  0  0  0  0  0  0
    1.6567    3.5224    3.6220 H   0  0  0  0  0  0  0  0  0  0  0  0
    1.1555    2.0720    2.6986 H   0  0  0  0  0  0  0  0  0  0  0  0
    1.3111    3.6402    1.8680 H   0  0  0  0  0  0  0  0  0  0  0  0
    3.8422    3.0043    3.0040 H   0  0  0  0  0  0  0  0  0  0  0  0
    4.6994    0.8531   -0.8165 H   0  0  0  0  0  0  0  0  0  0  0  0
    5.8477    2.7557   -2.2947 H   0  0  0  0  0  0  0  0  0  0  0  0
    4.6202    2.7969   -4.3633 H   0  0  0  0  0  0  0  0  0  0  0  0
    2.5130    0.5902   -7.5974 H   0  0  0  0  0  0  0  0  0  0  0  0
    2.6469    4.3409   -7.8035 H   0  0  0  0  0  0  0  0  0  0  0  0
    0.7477    5.6593   -8.5719 H   0  0  0  0  0  0  0  0  0  0  0  0
   -1.4877    2.0614   -9.3199 H   0  0  0  0  0  0  0  0  0  0  0  0
    0.4138    0.7112   -8.5440 H   0  0  0  0  0  0  0  0  0  0  0  0
    4.5242   -0.1615   -8.3077 H   0  0  0  0  0  0  0  0  0  0  0  0
    6.0198   -2.0088   -7.6871 H   0  0  0  0  0  0  0  0  0  0  0  0
    7.1328   -2.0319   -5.4982 H   0  0  0  0  0  0  0  0  0  0  0  0
    7.5525   -1.0471   -3.3109 H   0  0  0  0  0  0  0  0  0  0  0  0
    8.7097    1.4752    0.6384 H   0  0  0  0  0  0  0  0  0  0  0  0
    7.7071    2.4540    2.7043 H   0  0  0  0  0  0  0  0  0  0  0  0
  1  2  1  0  0  0  0
  1 32  1  0  0  0  0
  1 33  1  0  0  0  0
  1 34  1  0  0  0  0
  2  3  1  0  0  0  0
  2 35  1  0  0  0  0
  3  4  2  0  0  0  0
  3  5  1  0  0  0  0
  5  6  1  0  0  0  0
  5 31  2  0  0  0  0
  6  7  2  0  0  0  0
  6 36  1  0  0  0  0
  7  8  1  0  0  0  0
  7 29  1  0  0  0  0
  8  9  1  0  0  0  0
  9 10  1  0  0  0  0
  9 28  2  0  0  0  0
 10 11  2  0  0  0  0
 10 37  1  0  0  0  0
 11 12  1  0  0  0  0
 11 38  1  0  0  0  0
 12 13  1  0  0  0  0
 12 27  2  0  0  0  0
 13 14  1  0  0  0  0
 13 24  2  0  0  0  0
 14 15  2  0  0  0  0
 14 16  1  0  0  0  0
 16 17  1  0  0  0  0
 16 39  1  0  0  0  0
 17 18  1  0  0  0  0
 17 23  2  0  0  0  0
 18 19  2  0  0  0  0
 18 40  1  0  0  0  0
 19 20  1  0  0  0  0
 19 41  1  0  0  0  0
 20 21  1  0  0  0  0
 20 22  2  0  0  0  0
 22 23  1  0  0  0  0
 22 42  1  0  0  0  0
 23 43  1  0  0  0  0
 24 25  1  0  0  0  0
 24 44  1  0  0  0  0
 25 26  2  0  0  0  0
 25 45  1  0  0  0  0
 26 27  1  0  0  0  0
 26 46  1  0  0  0  0
 27 28  1  0  0  0  0
 28 47  1  0  0  0  0
 29 30  2  0  0  0  0
 29 48  1  0  0  0  0
 30 31  1  0  0  0  0
 30 49  1  0  0  0  0
M  END
$$$$
