CHEMBL4539297
 OpenBabel04072215383D

 43 45  0  0  0  0  0  0  0  0999 V2000
    3.9171    4.6223    1.9952 C   0  0  0  0  0  0  0  0  0  0  0  0
    4.1285    3.1573    1.7095 C   0  0  0  0  0  0  0  0  0  0  0  0
    3.3081    2.5112    1.0614 O   0  0  0  0  0  0  0  0  0  0  0  0
    5.3669    2.4920    2.2175 C   0  0  0  0  0  0  0  0  0  0  0  0
    6.3435    3.2097    2.9163 C   0  0  0  0  0  0  0  0  0  0  0  0
    7.4899    2.5603    3.3600 C   0  0  0  0  0  0  0  0  0  0  0  0
    7.6661    1.2015    3.0990 C   0  0  0  0  0  0  0  0  0  0  0  0
    6.7076    0.4550    2.3999 C   0  0  0  0  0  0  0  0  0  0  0  0
    6.8848   -0.9096    2.0978 N   0  0  0  0  0  0  0  0  0  0  0  0
    7.7037   -1.8587    2.7435 C   0  0  0  0  0  0  0  0  0  0  0  0
    7.9886   -3.0435    2.0956 C   0  0  0  0  0  0  0  0  0  0  0  0
    8.9087   -3.8713    2.6986 C   0  0  0  0  0  0  0  0  0  0  0  0
    9.5188   -3.5839    3.8590 N   0  0  0  0  0  0  0  0  0  0  0  0
    9.1557   -2.4348    4.4380 C   0  0  0  0  0  0  0  0  0  0  0  0
    9.9590   -1.9785    5.9544 S   0  0  0  0  0  0  0  0  0  0  0  0
    8.6413   -0.9393    6.6696 C   0  0  0  0  0  0  0  0  0  0  0  0
    7.3703   -1.7384    6.9050 C   0  0  0  0  0  0  0  0  0  0  0  0
    7.3869   -2.9253    7.2356 O   0  0  0  0  0  0  0  0  0  0  0  0
    6.0363   -1.0637    6.7920 C   0  0  0  0  0  0  0  0  0  0  0  0
    5.8801    0.3167    6.6409 C   0  0  0  0  0  0  0  0  0  0  0  0
    4.5980    0.8766    6.5549 C   0  0  0  0  0  0  0  0  0  0  0  0
    3.4721    0.0592    6.6252 C   0  0  0  0  0  0  0  0  0  0  0  0
    1.9003    0.7526    6.5247 Cl  0  0  0  0  0  0  0  0  0  0  0  0
    3.6109   -1.3163    6.7854 C   0  0  0  0  0  0  0  0  0  0  0  0
    4.8890   -1.8746    6.8669 C   0  0  0  0  0  0  0  0  0  0  0  0
    8.2757   -1.5639    3.9220 N   0  0  0  0  0  0  0  0  0  0  0  0
    5.5504    1.1255    1.9650 C   0  0  0  0  0  0  0  0  0  0  0  0
    2.9301    4.9214    1.6295 H   0  0  0  0  0  0  0  0  0  0  0  0
    4.6718    5.2175    1.4745 H   0  0  0  0  0  0  0  0  0  0  0  0
    3.9471    4.8110    3.0716 H   0  0  0  0  0  0  0  0  0  0  0  0
    6.2458    4.2727    3.1189 H   0  0  0  0  0  0  0  0  0  0  0  0
    8.2619    3.1092    3.8940 H   0  0  0  0  0  0  0  0  0  0  0  0
    8.5911    0.7383    3.4257 H   0  0  0  0  0  0  0  0  0  0  0  0
    6.1528   -1.3181    1.5304 H   0  0  0  0  0  0  0  0  0  0  0  0
    7.5432   -3.3062    1.1461 H   0  0  0  0  0  0  0  0  0  0  0  0
    9.2035   -4.8115    2.2417 H   0  0  0  0  0  0  0  0  0  0  0  0
    8.4824   -0.0866    6.0060 H   0  0  0  0  0  0  0  0  0  0  0  0
    8.9825   -0.5583    7.6370 H   0  0  0  0  0  0  0  0  0  0  0  0
    6.7283    0.9935    6.5919 H   0  0  0  0  0  0  0  0  0  0  0  0
    4.4834    1.9513    6.4358 H   0  0  0  0  0  0  0  0  0  0  0  0
    2.7373   -1.9601    6.8491 H   0  0  0  0  0  0  0  0  0  0  0  0
    4.9861   -2.9523    6.9931 H   0  0  0  0  0  0  0  0  0  0  0  0
    4.7814    0.5789    1.4213 H   0  0  0  0  0  0  0  0  0  0  0  0
  1  2  1  0  0  0  0
  1 28  1  0  0  0  0
  1 29  1  0  0  0  0
  1 30  1  0  0  0  0
  2  3  2  0  0  0  0
  2  4  1  0  0  0  0
  4  5  1  0  0  0  0
  4 27  2  0  0  0  0
  5  6  2  0  0  0  0
  5 31  1  0  0  0  0
  6  7  1  0  0  0  0
  6 32  1  0  0  0  0
  7  8  2  0  0  0  0
  7 33  1  0  0  0  0
  8  9  1  0  0  0  0
  8 27  1  0  0  0  0
  9 10  1  0  0  0  0
  9 34  1  0  0  0  0
 10 11  1  0  0  0  0
 10 26  2  0  0  0  0
 11 12  2  0  0  0  0
 11 35  1  0  0  0  0
 12 13  1  0  0  0  0
 12 36  1  0  0  0  0
 13 14  2  0  0  0  0
 14 15  1  0  0  0  0
 14 26  1  0  0  0  0
 15 16  1  0  0  0  0
 16 17  1  0  0  0  0
 16 37  1  0  0  0  0
 16 38  1  0  0  0  0
 17 18  2  0  0  0  0
 17 19  1  0  0  0  0
 19 20  1  0  0  0  0
 19 25  2  0  0  0  0
 20 21  2  0  0  0  0
 20 39  1  0  0  0  0
 21 22  1  0  0  0  0
 21 40  1  0  0  0  0
 22 23  1  0  0  0  0
 22 24  2  0  0  0  0
 24 25  1  0  0  0  0
 24 41  1  0  0  0  0
 25 42  1  0  0  0  0
 27 43  1  0  0  0  0
M  END
$$$$
