CHEMBL151015
 OpenBabel04072215363D

 47 49  0  0  0  0  0  0  0  0999 V2000
    2.9720    4.9305    1.3050 C   0  0  0  0  0  0  0  0  0  0  0  0
    2.5241    3.7101    0.7147 O   0  0  0  0  0  0  0  0  0  0  0  0
    2.7766    3.6817   -0.6852 C   0  0  0  0  0  0  0  0  0  0  0  0
    4.2661    3.7295   -1.0096 C   0  0  0  0  0  0  0  0  0  0  0  0
    4.7570    4.6613   -1.6420 O   0  0  0  0  0  0  0  0  0  0  0  0
    4.9660    2.6347   -0.5250 N   0  0  0  0  0  0  0  0  0  0  0  0
    6.3671    2.5450   -0.6109 C   0  0  0  0  0  0  0  0  0  0  0  0
    7.1438    3.6375   -0.1904 C   0  0  0  0  0  0  0  0  0  0  0  0
    8.5256    3.5950   -0.1617 C   0  0  0  0  0  0  0  0  0  0  0  0
    9.1867    4.6439    0.3397 N   0  0  0  0  0  0  0  0  0  0  0  0
   10.5165    4.5614    0.3537 C   0  0  0  0  0  0  0  0  0  0  0  0
   11.2379    3.5501   -0.1301 N   0  0  0  0  0  0  0  0  0  0  0  0
   10.5637    2.5052   -0.6514 C   0  0  0  0  0  0  0  0  0  0  0  0
   11.3090    1.4357   -1.2357 N   0  0  0  0  0  0  0  0  0  0  0  0
   12.7178    1.3437   -1.0747 C   0  0  0  0  0  0  0  0  0  0  0  0
   13.2776    1.4015    0.2032 C   0  0  0  0  0  0  0  0  0  0  0  0
   14.6516    1.5486    0.3593 C   0  0  0  0  0  0  0  0  0  0  0  0
   15.1671    1.7153    1.6125 O   0  0  0  0  0  0  0  0  0  0  0  0
   15.5037    1.5832   -0.7475 C   0  0  0  0  0  0  0  0  0  0  0  0
   16.9672    1.8831   -0.6110 C   0  0  0  0  0  0  0  0  0  0  0  0
   14.9536    1.3924   -2.0248 C   0  0  0  0  0  0  0  0  0  0  0  0
   13.5734    1.2804   -2.1798 C   0  0  0  0  0  0  0  0  0  0  0  0
   13.0583    1.1803   -3.4157 F   0  0  0  0  0  0  0  0  0  0  0  0
    9.1642    2.4492   -0.6484 C   0  0  0  0  0  0  0  0  0  0  0  0
    8.3931    1.3323   -1.0532 C   0  0  0  0  0  0  0  0  0  0  0  0
    6.9987    1.3712   -1.0212 C   0  0  0  0  0  0  0  0  0  0  0  0
    6.3763    0.2062   -1.3784 O   0  0  0  0  0  0  0  0  0  0  0  0
    5.3108    0.3274   -2.3173 C   0  0  0  0  0  0  0  0  0  0  0  0
    2.7240    4.9067    2.3681 H   0  0  0  0  0  0  0  0  0  0  0  0
    2.4731    5.7870    0.8430 H   0  0  0  0  0  0  0  0  0  0  0  0
    4.0583    5.0354    1.2143 H   0  0  0  0  0  0  0  0  0  0  0  0
    2.2647    4.5138   -1.1819 H   0  0  0  0  0  0  0  0  0  0  0  0
    2.3601    2.7529   -1.0905 H   0  0  0  0  0  0  0  0  0  0  0  0
    4.4474    1.7805   -0.3607 H   0  0  0  0  0  0  0  0  0  0  0  0
    6.6532    4.5348    0.1883 H   0  0  0  0  0  0  0  0  0  0  0  0
   11.0623    5.3897    0.7929 H   0  0  0  0  0  0  0  0  0  0  0  0
   11.0574    1.3627   -2.2223 H   0  0  0  0  0  0  0  0  0  0  0  0
   12.6170    1.4021    1.0650 H   0  0  0  0  0  0  0  0  0  0  0  0
   14.4298    1.8867    2.2228 H   0  0  0  0  0  0  0  0  0  0  0  0
   17.2424    2.1501    0.4142 H   0  0  0  0  0  0  0  0  0  0  0  0
   17.2226    2.7432   -1.2401 H   0  0  0  0  0  0  0  0  0  0  0  0
   17.5674    1.0212   -0.9140 H   0  0  0  0  0  0  0  0  0  0  0  0
   15.5862    1.3866   -2.9078 H   0  0  0  0  0  0  0  0  0  0  0  0
    8.8859    0.4174   -1.3776 H   0  0  0  0  0  0  0  0  0  0  0  0
    5.4625   -0.4184   -3.1029 H   0  0  0  0  0  0  0  0  0  0  0  0
    5.2447    1.3091   -2.7987 H   0  0  0  0  0  0  0  0  0  0  0  0
    4.3692    0.0917   -1.8105 H   0  0  0  0  0  0  0  0  0  0  0  0
  1  2  1  0  0  0  0
  1 29  1  0  0  0  0
  1 30  1  0  0  0  0
  1 31  1  0  0  0  0
  2  3  1  0  0  0  0
  3  4  1  0  0  0  0
  3 32  1  0  0  0  0
  3 33  1  0  0  0  0
  4  5  2  0  0  0  0
  4  6  1  0  0  0  0
  6  7  1  0  0  0  0
  6 34  1  0  0  0  0
  7  8  1  0  0  0  0
  7 26  2  0  0  0  0
  8  9  2  0  0  0  0
  8 35  1  0  0  0  0
  9 10  1  0  0  0  0
  9 24  1  0  0  0  0
 10 11  2  0  0  0  0
 11 12  1  0  0  0  0
 11 36  1  0  0  0  0
 12 13  2  0  0  0  0
 13 14  1  0  0  0  0
 13 24  1  0  0  0  0
 14 15  1  0  0  0  0
 14 37  1  0  0  0  0
 15 16  1  0  0  0  0
 15 22  2  0  0  0  0
 16 17  2  0  0  0  0
 16 38  1  0  0  0  0
 17 18  1  0  0  0  0
 17 19  1  0  0  0  0
 18 39  1  0  0  0  0
 19 20  1  0  0  0  0
 19 21  2  0  0  0  0
 20 40  1  0  0  0  0
 20 41  1  0  0  0  0
 20 42  1  0  0  0  0
 21 22  1  0  0  0  0
 21 43  1  0  0  0  0
 22 23  1  0  0  0  0
 24 25  2  0  0  0  0
 25 26  1  0  0  0  0
 25 44  1  0  0  0  0
 26 27  1  0  0  0  0
 27 28  1  0  0  0  0
 28 45  1  0  0  0  0
 28 46  1  0  0  0  0
 28 47  1  0  0  0  0
M  END
$$$$
