CHEMBL2023494
 OpenBabel04072215363D

 67 70  0  0  0  0  0  0  0  0999 V2000
   10.5729    1.6083   -6.5602 C   0  0  0  0  0  0  0  0  0  0  0  0
    9.6504    0.8465   -5.7796 O   0  0  0  0  0  0  0  0  0  0  0  0
    8.5097    1.5059   -5.4305 C   0  0  0  0  0  0  0  0  0  0  0  0
    7.8989    2.5029   -6.1950 C   0  0  0  0  0  0  0  0  0  0  0  0
    6.7390    3.1214   -5.7272 C   0  0  0  0  0  0  0  0  0  0  0  0
    6.1315    2.7331   -4.5167 C   0  0  0  0  0  0  0  0  0  0  0  0
    4.9316    3.2864   -3.9852 C   0  0  0  0  0  0  0  0  0  0  0  0
    4.3236    4.3650   -4.6371 O   0  0  0  0  0  0  0  0  0  0  0  0
    3.4854    5.1906   -3.8954 C   0  0  0  0  0  0  0  0  0  0  0  0
    3.8018    5.6087   -2.6016 C   0  0  0  0  0  0  0  0  0  0  0  0
    2.8355    6.2303   -1.8090 C   0  0  0  0  0  0  0  0  0  0  0  0
    1.5527    6.5206   -2.3113 C   0  0  0  0  0  0  0  0  0  0  0  0
    0.4826    7.0450   -1.3748 C   0  0  0  0  0  0  0  0  0  0  0  0
    0.4918    6.5699    0.0623 C   0  0  0  0  0  0  0  0  0  0  0  0
    0.4520    7.3752    0.9922 O   0  0  0  0  0  0  0  0  0  0  0  0
    0.4842    5.1924    0.1995 N   0  0  0  0  0  0  0  0  0  0  0  0
    0.4695    4.5745    1.4604 C   0  0  0  0  0  0  0  0  0  0  0  0
    1.4423    3.6142    1.7314 C   0  0  0  0  0  0  0  0  0  0  0  0
    1.4816    2.9882    2.9803 C   0  0  0  0  0  0  0  0  0  0  0  0
    2.6344    2.1087    3.3600 C   0  0  0  0  0  0  0  0  0  0  0  0
    0.4901    3.2805    3.9256 C   0  0  0  0  0  0  0  0  0  0  0  0
   -0.4595    4.2850    3.6830 C   0  0  0  0  0  0  0  0  0  0  0  0
   -1.3867    4.7502    4.7880 C   0  0  0  0  0  0  0  0  0  0  0  0
   -0.6672    5.2252    5.9881 N   0  0  0  0  0  0  0  0  0  0  0  0
    0.1998    6.3727    5.6944 C   0  0  0  0  0  0  0  0  0  0  0  0
   -1.6235    5.6004    7.0310 C   0  0  0  0  0  0  0  0  0  0  0  0
   -0.4698    4.9216    2.4342 C   0  0  0  0  0  0  0  0  0  0  0  0
    1.3224    6.3102   -3.6854 C   0  0  0  0  0  0  0  0  0  0  0  0
    0.1850    6.6414   -4.3800 O   0  0  0  0  0  0  0  0  0  0  0  0
   -0.5005    7.8447   -4.0305 C   0  0  0  0  0  0  0  0  0  0  0  0
    2.2740    5.6080   -4.4572 C   0  0  0  0  0  0  0  0  0  0  0  0
    4.3767    2.7135   -2.8446 C   0  0  0  0  0  0  0  0  0  0  0  0
    5.0844    1.7453   -2.1698 C   0  0  0  0  0  0  0  0  0  0  0  0
    6.2510    1.2419   -2.6058 N   0  0  0  0  0  0  0  0  0  0  0  0
    6.7472    1.6957   -3.7625 C   0  0  0  0  0  0  0  0  0  0  0  0
    7.9175    1.1079   -4.2395 C   0  0  0  0  0  0  0  0  0  0  0  0
   11.4957    1.0300   -6.6688 H   0  0  0  0  0  0  0  0  0  0  0  0
   10.8212    2.5493   -6.0585 H   0  0  0  0  0  0  0  0  0  0  0  0
   10.1822    1.7892   -7.5657 H   0  0  0  0  0  0  0  0  0  0  0  0
    8.2922    2.7829   -7.1623 H   0  0  0  0  0  0  0  0  0  0  0  0
    6.2883    3.9042   -6.3376 H   0  0  0  0  0  0  0  0  0  0  0  0
    4.7707    5.3709   -2.1697 H   0  0  0  0  0  0  0  0  0  0  0  0
    3.0904    6.4430   -0.7712 H   0  0  0  0  0  0  0  0  0  0  0  0
   -0.5034    6.7293   -1.7280 H   0  0  0  0  0  0  0  0  0  0  0  0
    0.5298    8.1401   -1.3661 H   0  0  0  0  0  0  0  0  0  0  0  0
    0.9018    4.6681   -0.5600 H   0  0  0  0  0  0  0  0  0  0  0  0
    2.2296    3.4239    1.0075 H   0  0  0  0  0  0  0  0  0  0  0  0
    3.3468    2.0033    2.5352 H   0  0  0  0  0  0  0  0  0  0  0  0
    2.2863    1.1131    3.6458 H   0  0  0  0  0  0  0  0  0  0  0  0
    3.1722    2.5620    4.2007 H   0  0  0  0  0  0  0  0  0  0  0  0
    0.5017    2.7843    4.8951 H   0  0  0  0  0  0  0  0  0  0  0  0
   -2.0198    3.8928    5.0584 H   0  0  0  0  0  0  0  0  0  0  0  0
   -2.0622    5.5298    4.4127 H   0  0  0  0  0  0  0  0  0  0  0  0
    0.9663    6.1292    4.9515 H   0  0  0  0  0  0  0  0  0  0  0  0
    0.7469    6.6698    6.5970 H   0  0  0  0  0  0  0  0  0  0  0  0
   -0.3669    7.2393    5.3359 H   0  0  0  0  0  0  0  0  0  0  0  0
   -2.2811    4.7608    7.2796 H   0  0  0  0  0  0  0  0  0  0  0  0
   -2.2473    6.4507    6.7306 H   0  0  0  0  0  0  0  0  0  0  0  0
   -1.0963    5.8711    7.9529 H   0  0  0  0  0  0  0  0  0  0  0  0
   -1.2077    5.6932    2.2274 H   0  0  0  0  0  0  0  0  0  0  0  0
   -0.9550    8.2621   -4.9340 H   0  0  0  0  0  0  0  0  0  0  0  0
    0.1542    8.6129   -3.6056 H   0  0  0  0  0  0  0  0  0  0  0  0
   -1.3296    7.6162   -3.3537 H   0  0  0  0  0  0  0  0  0  0  0  0
    2.0485    5.3688   -5.4938 H   0  0  0  0  0  0  0  0  0  0  0  0
    3.4191    3.0335   -2.4380 H   0  0  0  0  0  0  0  0  0  0  0  0
    4.7279    1.3467   -1.2269 H   0  0  0  0  0  0  0  0  0  0  0  0
    8.3838    0.3198   -3.6455 H   0  0  0  0  0  0  0  0  0  0  0  0
  1  2  1  0  0  0  0
  1 37  1  0  0  0  0
  1 38  1  0  0  0  0
  1 39  1  0  0  0  0
  2  3  1  0  0  0  0
  3  4  1  0  0  0  0
  3 36  2  0  0  0  0
  4  5  2  0  0  0  0
  4 40  1  0  0  0  0
  5  6  1  0  0  0  0
  5 41  1  0  0  0  0
  6  7  1  0  0  0  0
  6 35  2  0  0  0  0
  7  8  1  0  0  0  0
  7 32  2  0  0  0  0
  8  9  1  0  0  0  0
  9 10  1  0  0  0  0
  9 31  2  0  0  0  0
 10 11  2  0  0  0  0
 10 42  1  0  0  0  0
 11 12  1  0  0  0  0
 11 43  1  0  0  0  0
 12 13  1  0  0  0  0
 12 28  2  0  0  0  0
 13 14  1  0  0  0  0
 13 44  1  0  0  0  0
 13 45  1  0  0  0  0
 14 15  2  0  0  0  0
 14 16  1  0  0  0  0
 16 17  1  0  0  0  0
 16 46  1  0  0  0  0
 17 18  1  0  0  0  0
 17 27  2  0  0  0  0
 18 19  2  0  0  0  0
 18 47  1  0  0  0  0
 19 20  1  0  0  0  0
 19 21  1  0  0  0  0
 20 48  1  0  0  0  0
 20 49  1  0  0  0  0
 20 50  1  0  0  0  0
 21 22  2  0  0  0  0
 21 51  1  0  0  0  0
 22 23  1  0  0  0  0
 22 27  1  0  0  0  0
 23 24  1  0  0  0  0
 23 52  1  0  0  0  0
 23 53  1  0  0  0  0
 24 25  1  0  0  0  0
 24 26  1  0  0  0  0
 25 54  1  0  0  0  0
 25 55  1  0  0  0  0
 25 56  1  0  0  0  0
 26 57  1  0  0  0  0
 26 58  1  0  0  0  0
 26 59  1  0  0  0  0
 27 60  1  0  0  0  0
 28 29  1  0  0  0  0
 28 31  1  0  0  0  0
 29 30  1  0  0  0  0
 30 61  1  0  0  0  0
 30 62  1  0  0  0  0
 30 63  1  0  0  0  0
 31 64  1  0  0  0  0
 32 33  1  0  0  0  0
 32 65  1  0  0  0  0
 33 34  2  0  0  0  0
 33 66  1  0  0  0  0
 34 35  1  0  0  0  0
 35 36  1  0  0  0  0
 36 67  1  0  0  0  0
M  END
$$$$
