CHEMBL3288514
 OpenBabel04072215363D

 47 51  0  0  0  0  0  0  0  0999 V2000
   -3.4624    3.0343    1.5525 N   0  0  0  0  0  0  0  0  0  0  0  0
   -3.2279    1.7214    1.3978 C   0  0  0  0  0  0  0  0  0  0  0  0
   -4.1209    0.8412    1.8394 N   0  0  0  0  0  0  0  0  0  0  0  0
   -3.6072   -0.3367    1.4837 N   0  0  0  0  0  0  0  0  0  0  0  0
   -2.4115   -0.2580    0.8260 C   0  0  0  0  0  0  0  0  0  0  0  0
   -1.6192   -1.2781    0.2941 C   0  0  0  0  0  0  0  0  0  0  0  0
   -0.4291   -0.9071   -0.3127 C   0  0  0  0  0  0  0  0  0  0  0  0
   -0.0467    0.4313   -0.3601 C   0  0  0  0  0  0  0  0  0  0  0  0
   -0.8403    1.4819    0.1747 C   0  0  0  0  0  0  0  0  0  0  0  0
   -0.3606    2.8827    0.1023 C   0  0  0  0  0  0  0  0  0  0  0  0
    0.4192    3.3420   -0.9683 C   0  0  0  0  0  0  0  0  0  0  0  0
    0.8819    4.6649   -1.0342 C   0  0  0  0  0  0  0  0  0  0  0  0
    0.4808    5.6429   -0.0938 C   0  0  0  0  0  0  0  0  0  0  0  0
    0.7907    7.0347   -0.1368 C   0  0  0  0  0  0  0  0  0  0  0  0
    1.6378    7.6984   -1.1725 C   0  0  0  0  0  0  0  0  0  0  0  0
    2.4236    8.5646   -0.7926 O   0  0  0  0  0  0  0  0  0  0  0  0
    1.4448    7.3136   -2.4862 N   0  0  0  0  0  0  0  0  0  0  0  0
    2.1268    7.8032   -3.6243 C   0  0  0  0  0  0  0  0  0  0  0  0
    2.9918    8.9022   -3.6091 C   0  0  0  0  0  0  0  0  0  0  0  0
    3.5772    9.3528   -4.7971 C   0  0  0  0  0  0  0  0  0  0  0  0
    3.3137    8.6967   -5.9938 C   0  0  0  0  0  0  0  0  0  0  0  0
    3.8655    9.1469   -7.1276 F   0  0  0  0  0  0  0  0  0  0  0  0
    2.4840    7.5855   -6.0301 C   0  0  0  0  0  0  0  0  0  0  0  0
    1.8959    7.1535   -4.8465 C   0  0  0  0  0  0  0  0  0  0  0  0
    1.0977    6.0730   -4.8775 F   0  0  0  0  0  0  0  0  0  0  0  0
    0.3235    7.9005    0.8731 C   0  0  0  0  0  0  0  0  0  0  0  0
   -0.4465    7.4176    1.9241 C   0  0  0  0  0  0  0  0  0  0  0  0
   -0.7383    6.0623    1.9892 C   0  0  0  0  0  0  0  0  0  0  0  0
   -0.2854    5.1751    1.0006 C   0  0  0  0  0  0  0  0  0  0  0  0
   -0.6118    3.8143    1.1151 C   0  0  0  0  0  0  0  0  0  0  0  0
   -2.0863    1.1027    0.7745 C   0  0  0  0  0  0  0  0  0  0  0  0
   -4.3893    3.2664    1.8928 H   0  0  0  0  0  0  0  0  0  0  0  0
   -3.1269    3.6833    0.8508 H   0  0  0  0  0  0  0  0  0  0  0  0
   -4.1286   -1.1745    1.7142 H   0  0  0  0  0  0  0  0  0  0  0  0
   -1.9168   -2.3214    0.3512 H   0  0  0  0  0  0  0  0  0  0  0  0
    0.2191   -1.6675   -0.7432 H   0  0  0  0  0  0  0  0  0  0  0  0
    0.9159    0.6552   -0.8173 H   0  0  0  0  0  0  0  0  0  0  0  0
    0.6988    2.6723   -1.7797 H   0  0  0  0  0  0  0  0  0  0  0  0
    1.5578    4.9018   -1.8508 H   0  0  0  0  0  0  0  0  0  0  0  0
    0.7418    6.6121   -2.6809 H   0  0  0  0  0  0  0  0  0  0  0  0
    3.2138    9.4443   -2.6967 H   0  0  0  0  0  0  0  0  0  0  0  0
    4.2299   10.2210   -4.7895 H   0  0  0  0  0  0  0  0  0  0  0  0
    2.2951    7.0714   -6.9642 H   0  0  0  0  0  0  0  0  0  0  0  0
    0.5653    8.9603    0.8405 H   0  0  0  0  0  0  0  0  0  0  0  0
   -0.8101    8.0944    2.6938 H   0  0  0  0  0  0  0  0  0  0  0  0
   -1.3429    5.6986    2.8198 H   0  0  0  0  0  0  0  0  0  0  0  0
   -1.1005    3.4756    2.0299 H   0  0  0  0  0  0  0  0  0  0  0  0
  1  2  1  0  0  0  0
  1 32  1  0  0  0  0
  1 33  1  0  0  0  0
  2  3  2  0  0  0  0
  2 31  1  0  0  0  0
  3  4  1  0  0  0  0
  4  5  1  0  0  0  0
  4 34  1  0  0  0  0
  5  6  1  0  0  0  0
  5 31  2  0  0  0  0
  6  7  2  0  0  0  0
  6 35  1  0  0  0  0
  7  8  1  0  0  0  0
  7 36  1  0  0  0  0
  8  9  2  0  0  0  0
  8 37  1  0  0  0  0
  9 10  1  0  0  0  0
  9 31  1  0  0  0  0
 10 11  1  0  0  0  0
 10 30  2  0  0  0  0
 11 12  2  0  0  0  0
 11 38  1  0  0  0  0
 12 13  1  0  0  0  0
 12 39  1  0  0  0  0
 13 14  1  0  0  0  0
 13 29  2  0  0  0  0
 14 15  1  0  0  0  0
 14 26  2  0  0  0  0
 15 16  2  0  0  0  0
 15 17  1  0  0  0  0
 17 18  1  0  0  0  0
 17 40  1  0  0  0  0
 18 19  1  0  0  0  0
 18 24  2  0  0  0  0
 19 20  2  0  0  0  0
 19 41  1  0  0  0  0
 20 21  1  0  0  0  0
 20 42  1  0  0  0  0
 21 22  1  0  0  0  0
 21 23  2  0  0  0  0
 23 24  1  0  0  0  0
 23 43  1  0  0  0  0
 24 25  1  0  0  0  0
 26 27  1  0  0  0  0
 26 44  1  0  0  0  0
 27 28  2  0  0  0  0
 27 45  1  0  0  0  0
 28 29  1  0  0  0  0
 28 46  1  0  0  0  0
 29 30  1  0  0  0  0
 30 47  1  0  0  0  0
M  END
$$$$
