CHEMBL3622957
 OpenBabel04072215363D

 58 62  0  0  1  0  0  0  0  0999 V2000
    2.4005   -1.3807   -1.7713 C   0  0  0  0  0  0  0  0  0  0  0  0
    2.8981   -0.1551   -1.0925 C   0  0  0  0  0  0  0  0  0  0  0  0
    4.2037    0.1562   -1.1160 N   0  0  0  0  0  0  0  0  0  0  0  0
    4.3065    1.2690   -0.3391 N   0  0  0  0  0  0  0  0  0  0  0  0
    5.5151    2.0295   -0.2175 C   0  0  0  0  0  0  0  0  0  0  0  0
    6.5944    1.7108   -1.0155 C   0  0  0  0  0  0  0  0  0  0  0  0
    7.6969    2.5183   -0.8638 C   0  0  0  0  0  0  0  0  0  0  0  0
    7.7569    3.5413    0.0094 N   0  0  0  0  0  0  0  0  0  0  0  0
    6.6577    3.8019    0.7371 C   0  0  0  0  0  0  0  0  0  0  0  0
    6.7739    4.8717    1.6297 N   0  0  0  0  0  0  0  0  0  0  0  0
    5.8193    5.7650    2.1462 C   0  0  0  0  0  0  0  0  0  0  0  0
    4.4620    5.7033    1.8286 C   0  0  0  0  0  0  0  0  0  0  0  0
    3.5231    6.6187    2.3449 C   0  0  0  0  0  0  0  0  0  0  0  0
    3.9778    7.6160    3.2242 C   0  0  0  0  0  0  0  0  0  0  0  0
    5.3176    7.6810    3.6090 C   0  0  0  0  0  0  0  0  0  0  0  0
    6.2307    6.7343    3.0805 C   0  0  0  0  0  0  0  0  0  0  0  0
    5.4334    8.7875    4.4950 C   0  0  0  0  0  0  0  0  0  0  0  0
    6.8857    9.2821    5.2366 Cl  0  0  0  0  0  0  0  0  0  0  0  0
    4.1976    9.3970    4.6028 C   0  0  0  0  0  0  0  0  0  0  0  0
    3.8086   10.6290    5.3434 C   0  0  0  0  0  0  0  0  0  0  0  0
    3.3144    8.6484    3.8506 N   0  0  0  0  0  0  0  0  0  0  0  0
    1.8960    8.9048    3.6946 C   0  0  0  0  0  0  0  0  0  0  0  0
    5.5312    3.0783    0.6453 N   0  0  0  0  0  0  0  0  0  0  0  0
    3.0922    1.5834    0.2376 C   0  0  0  0  0  0  0  0  0  0  0  0
    2.1296    0.8067   -0.3797 C   0  0  0  0  0  0  0  0  0  0  0  0
    0.6376    0.9827   -0.3526 C   0  0  0  0  0  0  0  0  0  0  0  0
   -0.0330    0.0096    0.5122 N   0  0  0  0  0  0  0  0  0  0  0  0
    0.2156    0.2491    1.9431 C   0  0  0  0  0  0  0  0  0  0  0  0
   -1.0677    0.7572    2.5960 C   0  0  0  0  0  0  0  0  0  0  0  0
   -2.0674    0.9099    1.4696 C   0  0  1  0  0  0  0  0  0  0  0  0
   -2.1664    2.2886    1.1170 O   0  0  0  0  0  0  0  0  0  0  0  0
   -1.5017    0.0329    0.3520 C   0  0  0  0  0  0  0  0  0  0  0  0
    3.2234   -2.0330   -2.0826 H   0  0  0  0  0  0  0  0  0  0  0  0
    1.8046   -1.1295   -2.6532 H   0  0  0  0  0  0  0  0  0  0  0  0
    1.7720   -1.9571   -1.0831 H   0  0  0  0  0  0  0  0  0  0  0  0
    6.5836    0.9055   -1.7361 H   0  0  0  0  0  0  0  0  0  0  0  0
    8.5895    2.3723   -1.4671 H   0  0  0  0  0  0  0  0  0  0  0  0
    7.7129    5.2394    1.5636 H   0  0  0  0  0  0  0  0  0  0  0  0
    4.0987    4.9649    1.1207 H   0  0  0  0  0  0  0  0  0  0  0  0
    2.4843    6.5470    2.0475 H   0  0  0  0  0  0  0  0  0  0  0  0
    7.2683    6.7813    3.3942 H   0  0  0  0  0  0  0  0  0  0  0  0
    4.6677   11.0878    5.8419 H   0  0  0  0  0  0  0  0  0  0  0  0
    3.0607   10.4054    6.1104 H   0  0  0  0  0  0  0  0  0  0  0  0
    3.3965   11.3753    4.6554 H   0  0  0  0  0  0  0  0  0  0  0  0
    1.6059    9.8067    4.2357 H   0  0  0  0  0  0  0  0  0  0  0  0
    1.3446    8.0495    4.0947 H   0  0  0  0  0  0  0  0  0  0  0  0
    1.6830    9.0392    2.6309 H   0  0  0  0  0  0  0  0  0  0  0  0
    3.0194    2.3934    0.9484 H   0  0  0  0  0  0  0  0  0  0  0  0
    0.2917    0.8391   -1.3869 H   0  0  0  0  0  0  0  0  0  0  0  0
    0.3870    2.0163   -0.0854 H   0  0  0  0  0  0  0  0  0  0  0  0
    1.0370    0.9453    2.1390 H   0  0  0  0  0  0  0  0  0  0  0  0
    0.4999   -0.7042    2.4027 H   0  0  0  0  0  0  0  0  0  0  0  0
   -0.8969    1.6987    3.1292 H   0  0  0  0  0  0  0  0  0  0  0  0
   -1.4241    0.0121    3.3165 H   0  0  0  0  0  0  0  0  0  0  0  0
   -3.0661    0.5792    1.7751 H   0  0  0  0  0  0  0  0  0  0  0  0
   -1.9420    2.3923    0.1789 H   0  0  0  0  0  0  0  0  0  0  0  0
   -1.8272    0.3567   -0.6435 H   0  0  0  0  0  0  0  0  0  0  0  0
   -1.8621   -0.9934    0.4933 H   0  0  0  0  0  0  0  0  0  0  0  0
  1  2  1  0  0  0  0
  1 33  1  0  0  0  0
  1 34  1  0  0  0  0
  1 35  1  0  0  0  0
  2  3  2  0  0  0  0
  2 25  1  0  0  0  0
  3  4  1  0  0  0  0
  4  5  1  0  0  0  0
  4 24  1  0  0  0  0
  5  6  1  0  0  0  0
  5 23  2  0  0  0  0
  6  7  2  0  0  0  0
  6 36  1  0  0  0  0
  7  8  1  0  0  0  0
  7 37  1  0  0  0  0
  8  9  2  0  0  0  0
  9 10  1  0  0  0  0
  9 23  1  0  0  0  0
 10 11  1  0  0  0  0
 10 38  1  0  0  0  0
 11 12  1  0  0  0  0
 11 16  2  0  0  0  0
 12 13  2  0  0  0  0
 12 39  1  0  0  0  0
 13 14  1  0  0  0  0
 13 40  1  0  0  0  0
 14 15  2  0  0  0  0
 14 21  1  0  0  0  0
 15 16  1  0  0  0  0
 15 17  1  0  0  0  0
 16 41  1  0  0  0  0
 17 18  1  0  0  0  0
 17 19  2  0  0  0  0
 19 20  1  0  0  0  0
 19 21  1  0  0  0  0
 20 42  1  0  0  0  0
 20 43  1  0  0  0  0
 20 44  1  0  0  0  0
 21 22  1  0  0  0  0
 22 45  1  0  0  0  0
 22 46  1  0  0  0  0
 22 47  1  0  0  0  0
 24 25  2  0  0  0  0
 24 48  1  0  0  0  0
 25 26  1  0  0  0  0
 26 27  1  0  0  0  0
 26 49  1  0  0  0  0
 26 50  1  0  0  0  0
 27 28  1  0  0  0  0
 27 32  1  0  0  0  0
 28 29  1  0  0  0  0
 28 51  1  0  0  0  0
 28 52  1  0  0  0  0
 29 30  1  0  0  0  0
 29 53  1  0  0  0  0
 29 54  1  0  0  0  0
 30 31  1  0  0  0  0
 30 32  1  0  0  0  0
 30 55  1  1  0  0  0
 31 56  1  0  0  0  0
 32 57  1  0  0  0  0
 32 58  1  0  0  0  0
M  END
$$$$
