CHEMBL3287592
 OpenBabel04072215363D

 63 67  0  0  0  0  0  0  0  0999 V2000
    3.0778    4.6571   -3.5883 C   0  0  0  0  0  0  0  0  0  0  0  0
    2.1444    4.8430   -4.7592 C   0  0  0  0  0  0  0  0  0  0  0  0
    1.1840    5.6067   -4.6963 O   0  0  0  0  0  0  0  0  0  0  0  0
    2.4131    4.0878   -6.0171 C   0  0  0  0  0  0  0  0  0  0  0  0
    1.5468    4.2302   -7.1064 C   0  0  0  0  0  0  0  0  0  0  0  0
    1.7969    3.5439   -8.2958 C   0  0  0  0  0  0  0  0  0  0  0  0
    2.9120    2.7102   -8.3992 C   0  0  0  0  0  0  0  0  0  0  0  0
    3.7657    2.5284   -7.3074 C   0  0  0  0  0  0  0  0  0  0  0  0
    4.9091    1.7192   -7.4448 N   0  0  0  0  0  0  0  0  0  0  0  0
    5.5616    1.0602   -6.4013 C   0  0  0  0  0  0  0  0  0  0  0  0
    4.8529    0.4872   -5.4122 N   0  0  0  0  0  0  0  0  0  0  0  0
    5.5360   -0.1786   -4.4661 C   0  0  0  0  0  0  0  0  0  0  0  0
    6.8976   -0.2878   -4.4615 C   0  0  0  0  0  0  0  0  0  0  0  0
    7.5313    0.3364   -5.5089 C   0  0  0  0  0  0  0  0  0  0  0  0
    8.9162    0.2341   -5.5661 O   0  0  0  0  0  0  0  0  0  0  0  0
    9.5008    0.2705   -6.8129 C   0  0  0  0  0  0  0  0  0  0  0  0
    8.9436   -0.3456   -7.9338 C   0  0  0  0  0  0  0  0  0  0  0  0
    9.5960   -0.2953   -9.1676 C   0  0  0  0  0  0  0  0  0  0  0  0
   10.8420    0.3195   -9.2968 C   0  0  0  0  0  0  0  0  0  0  0  0
   11.5621    0.3444  -10.5118 N   0  0  0  0  0  0  0  0  0  0  0  0
   11.1668   -0.2063  -11.7205 C   0  0  0  0  0  0  0  0  0  0  0  0
   10.1306   -0.8049  -11.9721 O   0  0  0  0  0  0  0  0  0  0  0  0
   12.1569   -0.0245  -12.8301 C   0  0  0  0  0  0  0  0  0  0  0  0
   13.3230   -0.9595  -12.7925 C   0  0  0  0  0  0  0  0  0  0  0  0
   14.2318   -0.6818  -12.0186 O   0  0  0  0  0  0  0  0  0  0  0  0
   13.2545   -2.0402  -13.6581 N   0  0  0  0  0  0  0  0  0  0  0  0
   14.2568   -3.0256  -13.8109 C   0  0  0  0  0  0  0  0  0  0  0  0
   15.2695   -3.2192  -12.8648 C   0  0  0  0  0  0  0  0  0  0  0  0
   16.3035   -4.1273  -13.0970 C   0  0  0  0  0  0  0  0  0  0  0  0
   16.3180   -4.8583  -14.2740 C   0  0  0  0  0  0  0  0  0  0  0  0
   17.3326   -5.6980  -14.5163 F   0  0  0  0  0  0  0  0  0  0  0  0
   15.2925   -4.7273  -15.2032 C   0  0  0  0  0  0  0  0  0  0  0  0
   14.2507   -3.8209  -14.9658 C   0  0  0  0  0  0  0  0  0  0  0  0
   12.4255    1.4170  -13.2748 C   0  0  0  0  0  0  0  0  0  0  0  0
   11.6580    0.5028  -14.1750 C   0  0  0  0  0  0  0  0  0  0  0  0
   11.4121    0.9213   -8.1672 C   0  0  0  0  0  0  0  0  0  0  0  0
   10.7407    0.8915   -6.9399 C   0  0  0  0  0  0  0  0  0  0  0  0
   11.3138    1.4716   -5.8739 F   0  0  0  0  0  0  0  0  0  0  0  0
    6.8913    1.0344   -6.4661 N   0  0  0  0  0  0  0  0  0  0  0  0
    3.5200    3.2438   -6.1294 C   0  0  0  0  0  0  0  0  0  0  0  0
    2.7171    5.2444   -2.7392 H   0  0  0  0  0  0  0  0  0  0  0  0
    4.0808    5.0101   -3.8449 H   0  0  0  0  0  0  0  0  0  0  0  0
    3.1023    3.6068   -3.2843 H   0  0  0  0  0  0  0  0  0  0  0  0
    0.6762    4.8795   -7.0336 H   0  0  0  0  0  0  0  0  0  0  0  0
    1.1215    3.6540   -9.1406 H   0  0  0  0  0  0  0  0  0  0  0  0
    3.0970    2.1751   -9.3283 H   0  0  0  0  0  0  0  0  0  0  0  0
    5.6356    2.1735   -7.9906 H   0  0  0  0  0  0  0  0  0  0  0  0
    4.9267   -0.6409   -3.6964 H   0  0  0  0  0  0  0  0  0  0  0  0
    7.4343   -0.8460   -3.7064 H   0  0  0  0  0  0  0  0  0  0  0  0
    7.9889   -0.8618   -7.8769 H   0  0  0  0  0  0  0  0  0  0  0  0
    9.0948   -0.7651  -10.0070 H   0  0  0  0  0  0  0  0  0  0  0  0
   12.4902    0.7548  -10.4870 H   0  0  0  0  0  0  0  0  0  0  0  0
   12.4759   -2.0686  -14.3058 H   0  0  0  0  0  0  0  0  0  0  0  0
   15.2772   -2.6788  -11.9234 H   0  0  0  0  0  0  0  0  0  0  0  0
   17.0968   -4.2523  -12.3675 H   0  0  0  0  0  0  0  0  0  0  0  0
   15.3236   -5.3191  -16.1129 H   0  0  0  0  0  0  0  0  0  0  0  0
   13.4688   -3.7233  -15.7149 H   0  0  0  0  0  0  0  0  0  0  0  0
   13.4392    1.6832  -13.5547 H   0  0  0  0  0  0  0  0  0  0  0  0
   11.8799    2.2207  -12.7914 H   0  0  0  0  0  0  0  0  0  0  0  0
   12.1472    0.1881  -15.0892 H   0  0  0  0  0  0  0  0  0  0  0  0
   10.5917    0.6734  -14.2872 H   0  0  0  0  0  0  0  0  0  0  0  0
   12.3765    1.4178   -8.2110 H   0  0  0  0  0  0  0  0  0  0  0  0
    4.2112    3.1298   -5.3003 H   0  0  0  0  0  0  0  0  0  0  0  0
  1  2  1  0  0  0  0
  1 41  1  0  0  0  0
  1 42  1  0  0  0  0
  1 43  1  0  0  0  0
  2  3  2  0  0  0  0
  2  4  1  0  0  0  0
  4  5  1  0  0  0  0
  4 40  2  0  0  0  0
  5  6  2  0  0  0  0
  5 44  1  0  0  0  0
  6  7  1  0  0  0  0
  6 45  1  0  0  0  0
  7  8  2  0  0  0  0
  7 46  1  0  0  0  0
  8  9  1  0  0  0  0
  8 40  1  0  0  0  0
  9 10  1  0  0  0  0
  9 47  1  0  0  0  0
 10 11  1  0  0  0  0
 10 39  2  0  0  0  0
 11 12  2  0  0  0  0
 12 13  1  0  0  0  0
 12 48  1  0  0  0  0
 13 14  2  0  0  0  0
 13 49  1  0  0  0  0
 14 15  1  0  0  0  0
 14 39  1  0  0  0  0
 15 16  1  0  0  0  0
 16 17  1  0  0  0  0
 16 37  2  0  0  0  0
 17 18  2  0  0  0  0
 17 50  1  0  0  0  0
 18 19  1  0  0  0  0
 18 51  1  0  0  0  0
 19 20  1  0  0  0  0
 19 36  2  0  0  0  0
 20 21  1  0  0  0  0
 20 52  1  0  0  0  0
 21 22  2  0  0  0  0
 21 23  1  0  0  0  0
 23 24  1  0  0  0  0
 23 34  1  0  0  0  0
 23 35  1  0  0  0  0
 24 25  2  0  0  0  0
 24 26  1  0  0  0  0
 26 27  1  0  0  0  0
 26 53  1  0  0  0  0
 27 28  1  0  0  0  0
 27 33  2  0  0  0  0
 28 29  2  0  0  0  0
 28 54  1  0  0  0  0
 29 30  1  0  0  0  0
 29 55  1  0  0  0  0
 30 31  1  0  0  0  0
 30 32  2  0  0  0  0
 32 33  1  0  0  0  0
 32 56  1  0  0  0  0
 33 57  1  0  0  0  0
 34 35  1  0  0  0  0
 34 58  1  0  0  0  0
 34 59  1  0  0  0  0
 35 60  1  0  0  0  0
 35 61  1  0  0  0  0
 36 37  1  0  0  0  0
 36 62  1  0  0  0  0
 37 38  1  0  0  0  0
 40 63  1  0  0  0  0
M  END
$$$$
