CHEMBL4643652
 OpenBabel04072215383D

 68 71  0  0  0  0  0  0  0  0999 V2000
    9.2850   -3.4628    1.6497 C   0  0  0  0  0  0  0  0  0  0  0  0
    9.8688   -2.2805    0.8908 C   0  0  0  0  0  0  0  0  0  0  0  0
    9.1271   -2.1152   -0.3652 N   0  0  0  0  0  0  0  0  0  0  0  0
    9.6725   -0.9679   -1.4717 S   0  0  0  0  0  0  0  0  0  0  0  0
   11.1129   -0.8641   -1.3577 O   0  0  0  0  0  0  0  0  0  0  0  0
    9.0303   -1.2857   -2.7288 O   0  0  0  0  0  0  0  0  0  0  0  0
    8.9444    0.5725   -0.9228 C   0  0  0  0  0  0  0  0  0  0  0  0
    9.8088    1.5485   -0.3915 C   0  0  0  0  0  0  0  0  0  0  0  0
    9.3496    2.8430   -0.1507 C   0  0  0  0  0  0  0  0  0  0  0  0
    8.0349    3.1700   -0.4435 C   0  0  0  0  0  0  0  0  0  0  0  0
    7.1731    2.1950   -0.9451 C   0  0  0  0  0  0  0  0  0  0  0  0
    7.5939    0.8760   -1.2034 C   0  0  0  0  0  0  0  0  0  0  0  0
    6.6742   -0.0991   -1.6440 N   0  0  0  0  0  0  0  0  0  0  0  0
    5.2820   -0.0343   -1.7761 C   0  0  0  0  0  0  0  0  0  0  0  0
    4.5733    0.8519   -1.0835 N   0  0  0  0  0  0  0  0  0  0  0  0
    3.2639    0.8323   -1.2830 C   0  0  0  0  0  0  0  0  0  0  0  0
    2.6238   -0.0230   -2.0533 N   0  0  0  0  0  0  0  0  0  0  0  0
    3.4054   -0.8919   -2.6848 C   0  0  0  0  0  0  0  0  0  0  0  0
    2.8228   -1.8332   -3.5247 N   0  0  0  0  0  0  0  0  0  0  0  0
    1.6561   -2.5713   -3.2879 C   0  0  0  0  0  0  0  0  0  0  0  0
    1.0719   -2.7257   -2.0398 C   0  0  0  0  0  0  0  0  0  0  0  0
   -0.1056   -3.4684   -1.8947 C   0  0  0  0  0  0  0  0  0  0  0  0
   -0.7595   -4.0921   -2.9810 C   0  0  0  0  0  0  0  0  0  0  0  0
   -2.0021   -4.7132   -2.7931 N   0  0  0  0  0  0  0  0  0  0  0  0
   -2.2227   -6.0677   -3.3379 C   0  0  0  0  0  0  0  0  0  0  0  0
   -3.7439   -6.3147   -3.5049 C   0  0  0  0  0  0  0  0  0  0  0  0
   -4.4651   -6.1866   -2.2200 N   0  0  0  0  0  0  0  0  0  0  0  0
   -5.8915   -6.4434   -2.3851 C   0  0  0  0  0  0  0  0  0  0  0  0
   -4.2336   -4.8277   -1.6871 C   0  0  0  0  0  0  0  0  0  0  0  0
   -2.7288   -4.5203   -1.5111 C   0  0  0  0  0  0  0  0  0  0  0  0
   -0.1265   -3.9608   -4.2466 C   0  0  0  0  0  0  0  0  0  0  0  0
   -0.6859   -4.5582   -5.3665 O   0  0  0  0  0  0  0  0  0  0  0  0
    0.2191   -4.7107   -6.4698 C   0  0  0  0  0  0  0  0  0  0  0  0
   -0.2429   -5.7448   -7.4790 C   0  0  0  0  0  0  0  0  0  0  0  0
    0.4406   -6.1207   -8.4215 O   0  0  0  0  0  0  0  0  0  0  0  0
   -1.4923   -6.2073   -7.2427 O   0  0  0  0  0  0  0  0  0  0  0  0
    1.0389   -3.1787   -4.3750 C   0  0  0  0  0  0  0  0  0  0  0  0
    4.7316   -0.9230   -2.5973 N   0  0  0  0  0  0  0  0  0  0  0  0
    9.7845   -3.5821    2.6159 H   0  0  0  0  0  0  0  0  0  0  0  0
    9.4101   -4.3942    1.0854 H   0  0  0  0  0  0  0  0  0  0  0  0
    8.2135   -3.3266    1.8303 H   0  0  0  0  0  0  0  0  0  0  0  0
   10.9240   -2.4879    0.6832 H   0  0  0  0  0  0  0  0  0  0  0  0
    9.7889   -1.3744    1.4963 H   0  0  0  0  0  0  0  0  0  0  0  0
    8.1118   -2.0914   -0.2696 H   0  0  0  0  0  0  0  0  0  0  0  0
   10.8556    1.3225   -0.2010 H   0  0  0  0  0  0  0  0  0  0  0  0
   10.0232    3.6055    0.2315 H   0  0  0  0  0  0  0  0  0  0  0  0
    7.6686    4.1837   -0.2983 H   0  0  0  0  0  0  0  0  0  0  0  0
    6.1611    2.5160   -1.1769 H   0  0  0  0  0  0  0  0  0  0  0  0
    7.0471   -0.7858   -2.2993 H   0  0  0  0  0  0  0  0  0  0  0  0
    2.6667    1.5824   -0.7766 H   0  0  0  0  0  0  0  0  0  0  0  0
    3.5500   -2.3540   -3.9982 H   0  0  0  0  0  0  0  0  0  0  0  0
    1.5141   -2.2760   -1.1545 H   0  0  0  0  0  0  0  0  0  0  0  0
   -0.4961   -3.5478   -0.8837 H   0  0  0  0  0  0  0  0  0  0  0  0
   -1.7953   -6.8151   -2.6570 H   0  0  0  0  0  0  0  0  0  0  0  0
   -1.7539   -6.2290   -4.3072 H   0  0  0  0  0  0  0  0  0  0  0  0
   -3.8896   -7.3201   -3.9151 H   0  0  0  0  0  0  0  0  0  0  0  0
   -4.1428   -5.5981   -4.2374 H   0  0  0  0  0  0  0  0  0  0  0  0
   -6.0548   -7.4511   -2.7820 H   0  0  0  0  0  0  0  0  0  0  0  0
   -6.3734   -5.7239   -3.0561 H   0  0  0  0  0  0  0  0  0  0  0  0
   -6.3974   -6.4034   -1.4138 H   0  0  0  0  0  0  0  0  0  0  0  0
   -4.7266   -4.7206   -0.7133 H   0  0  0  0  0  0  0  0  0  0  0  0
   -4.6680   -4.0741   -2.3587 H   0  0  0  0  0  0  0  0  0  0  0  0
   -2.3073   -5.1775   -0.7373 H   0  0  0  0  0  0  0  0  0  0  0  0
   -2.6562   -3.4840   -1.1609 H   0  0  0  0  0  0  0  0  0  0  0  0
    1.1983   -5.0587   -6.1211 H   0  0  0  0  0  0  0  0  0  0  0  0
    0.2872   -3.7563   -7.0059 H   0  0  0  0  0  0  0  0  0  0  0  0
   -1.8571   -5.7532   -6.4517 H   0  0  0  0  0  0  0  0  0  0  0  0
    1.4834   -2.9805   -5.3448 H   0  0  0  0  0  0  0  0  0  0  0  0
  1  2  1  0  0  0  0
  1 39  1  0  0  0  0
  1 40  1  0  0  0  0
  1 41  1  0  0  0  0
  2  3  1  0  0  0  0
  2 42  1  0  0  0  0
  2 43  1  0  0  0  0
  3  4  1  0  0  0  0
  3 44  1  0  0  0  0
  4  5  2  0  0  0  0
  4  6  2  0  0  0  0
  4  7  1  0  0  0  0
  7  8  1  0  0  0  0
  7 12  2  0  0  0  0
  8  9  2  0  0  0  0
  8 45  1  0  0  0  0
  9 10  1  0  0  0  0
  9 46  1  0  0  0  0
 10 11  2  0  0  0  0
 10 47  1  0  0  0  0
 11 12  1  0  0  0  0
 11 48  1  0  0  0  0
 12 13  1  0  0  0  0
 13 14  1  0  0  0  0
 13 49  1  0  0  0  0
 14 15  1  0  0  0  0
 14 38  2  0  0  0  0
 15 16  2  0  0  0  0
 16 17  1  0  0  0  0
 16 50  1  0  0  0  0
 17 18  2  0  0  0  0
 18 19  1  0  0  0  0
 18 38  1  0  0  0  0
 19 20  1  0  0  0  0
 19 51  1  0  0  0  0
 20 21  1  0  0  0  0
 20 37  2  0  0  0  0
 21 22  2  0  0  0  0
 21 52  1  0  0  0  0
 22 23  1  0  0  0  0
 22 53  1  0  0  0  0
 23 24  1  0  0  0  0
 23 31  2  0  0  0  0
 24 25  1  0  0  0  0
 24 30  1  0  0  0  0
 25 26  1  0  0  0  0
 25 54  1  0  0  0  0
 25 55  1  0  0  0  0
 26 27  1  0  0  0  0
 26 56  1  0  0  0  0
 26 57  1  0  0  0  0
 27 28  1  0  0  0  0
 27 29  1  0  0  0  0
 28 58  1  0  0  0  0
 28 59  1  0  0  0  0
 28 60  1  0  0  0  0
 29 30  1  0  0  0  0
 29 61  1  0  0  0  0
 29 62  1  0  0  0  0
 30 63  1  0  0  0  0
 30 64  1  0  0  0  0
 31 32  1  0  0  0  0
 31 37  1  0  0  0  0
 32 33  1  0  0  0  0
 33 34  1  0  0  0  0
 33 65  1  0  0  0  0
 33 66  1  0  0  0  0
 34 35  2  0  0  0  0
 34 36  1  0  0  0  0
 36 67  1  0  0  0  0
 37 68  1  0  0  0  0
M  END
$$$$
