CHEMBL2335013
 OpenBabel04072215363D

 46 49  0  0  0  0  0  0  0  0999 V2000
    1.2078    0.2716    0.2550 N   0  0  0  0  0  0  0  0  0  0  0  0
    2.5831    0.2293    0.1163 C   0  0  0  0  0  0  0  0  0  0  0  0
    3.1337   -0.9894    0.0822 N   0  0  0  0  0  0  0  0  0  0  0  0
    4.4808   -1.1317   -0.0448 C   0  0  0  0  0  0  0  0  0  0  0  0
    5.0555   -2.4084   -0.1024 N   0  0  0  0  0  0  0  0  0  0  0  0
    4.5663   -3.5975    0.4592 C   0  0  0  0  0  0  0  0  0  0  0  0
    4.9340   -4.8269   -0.0910 C   0  0  0  0  0  0  0  0  0  0  0  0
    4.4035   -6.0205    0.4102 C   0  0  0  0  0  0  0  0  0  0  0  0
    3.4974   -5.9927    1.4695 C   0  0  0  0  0  0  0  0  0  0  0  0
    3.1070   -4.7738    2.0349 C   0  0  0  0  0  0  0  0  0  0  0  0
    2.1320   -4.6907    3.1780 C   0  0  0  0  0  0  0  0  0  0  0  0
    1.6375   -5.9032    3.5581 F   0  0  0  0  0  0  0  0  0  0  0  0
    2.6863   -4.1511    4.2996 F   0  0  0  0  0  0  0  0  0  0  0  0
    1.0449   -3.9231    2.8907 F   0  0  0  0  0  0  0  0  0  0  0  0
    3.6476   -3.5871    1.5146 C   0  0  0  0  0  0  0  0  0  0  0  0
    5.2459    0.0345   -0.1565 C   0  0  0  0  0  0  0  0  0  0  0  0
    6.6227    0.3644   -0.2971 C   0  0  0  0  0  0  0  0  0  0  0  0
    6.7201    1.7381   -0.4420 C   0  0  0  0  0  0  0  0  0  0  0  0
    7.9164    2.5764   -0.7893 C   0  0  0  0  0  0  0  0  0  0  0  0
    7.8707    3.9951   -0.2161 C   0  0  0  0  0  0  0  0  0  0  0  0
    9.0256    4.8799   -0.6245 C   0  0  0  0  0  0  0  0  0  0  0  0
    9.0552    6.1944   -0.1606 C   0  0  0  0  0  0  0  0  0  0  0  0
   10.0985    7.0267   -0.5508 C   0  0  0  0  0  0  0  0  0  0  0  0
   11.0852    6.5309   -1.3919 C   0  0  0  0  0  0  0  0  0  0  0  0
   10.9842    5.2139   -1.8092 C   0  0  0  0  0  0  0  0  0  0  0  0
    9.9796    4.3829   -1.4469 N   0  0  0  0  0  0  0  0  0  0  0  0
    5.4490    2.2464   -0.2847 N   0  0  0  0  0  0  0  0  0  0  0  0
    4.5501    1.2285   -0.1327 C   0  0  0  0  0  0  0  0  0  0  0  0
    3.2275    1.3933   -0.0035 N   0  0  0  0  0  0  0  0  0  0  0  0
    0.8148   -0.5991   -0.0723 H   0  0  0  0  0  0  0  0  0  0  0  0
    0.8412    1.1267   -0.1354 H   0  0  0  0  0  0  0  0  0  0  0  0
    6.0289   -2.4278   -0.3661 H   0  0  0  0  0  0  0  0  0  0  0  0
    5.6140   -4.8674   -0.9377 H   0  0  0  0  0  0  0  0  0  0  0  0
    4.6865   -6.9683   -0.0377 H   0  0  0  0  0  0  0  0  0  0  0  0
    3.0873   -6.9297    1.8487 H   0  0  0  0  0  0  0  0  0  0  0  0
    3.3467   -2.6414    1.9626 H   0  0  0  0  0  0  0  0  0  0  0  0
    7.4520   -0.3298   -0.3458 H   0  0  0  0  0  0  0  0  0  0  0  0
    7.9819    2.6158   -1.8849 H   0  0  0  0  0  0  0  0  0  0  0  0
    8.8224    2.0665   -0.4381 H   0  0  0  0  0  0  0  0  0  0  0  0
    7.8385    3.9431    0.8789 H   0  0  0  0  0  0  0  0  0  0  0  0
    6.9533    4.4958   -0.5489 H   0  0  0  0  0  0  0  0  0  0  0  0
    8.2731    6.5701    0.4906 H   0  0  0  0  0  0  0  0  0  0  0  0
   10.1386    8.0548   -0.2025 H   0  0  0  0  0  0  0  0  0  0  0  0
   11.9116    7.1528   -1.7151 H   0  0  0  0  0  0  0  0  0  0  0  0
   11.7275    4.7803   -2.4707 H   0  0  0  0  0  0  0  0  0  0  0  0
    5.1751    3.2170   -0.3163 H   0  0  0  0  0  0  0  0  0  0  0  0
  1  2  1  0  0  0  0
  1 30  1  0  0  0  0
  1 31  1  0  0  0  0
  2  3  1  0  0  0  0
  2 29  2  0  0  0  0
  3  4  2  0  0  0  0
  4  5  1  0  0  0  0
  4 16  1  0  0  0  0
  5  6  1  0  0  0  0
  5 32  1  0  0  0  0
  6  7  1  0  0  0  0
  6 15  2  0  0  0  0
  7  8  2  0  0  0  0
  7 33  1  0  0  0  0
  8  9  1  0  0  0  0
  8 34  1  0  0  0  0
  9 10  2  0  0  0  0
  9 35  1  0  0  0  0
 10 11  1  0  0  0  0
 10 15  1  0  0  0  0
 11 12  1  0  0  0  0
 11 13  1  0  0  0  0
 11 14  1  0  0  0  0
 15 36  1  0  0  0  0
 16 17  1  0  0  0  0
 16 28  2  0  0  0  0
 17 18  2  0  0  0  0
 17 37  1  0  0  0  0
 18 19  1  0  0  0  0
 18 27  1  0  0  0  0
 19 20  1  0  0  0  0
 19 38  1  0  0  0  0
 19 39  1  0  0  0  0
 20 21  1  0  0  0  0
 20 40  1  0  0  0  0
 20 41  1  0  0  0  0
 21 22  1  0  0  0  0
 21 26  2  0  0  0  0
 22 23  2  0  0  0  0
 22 42  1  0  0  0  0
 23 24  1  0  0  0  0
 23 43  1  0  0  0  0
 24 25  2  0  0  0  0
 24 44  1  0  0  0  0
 25 26  1  0  0  0  0
 25 45  1  0  0  0  0
 27 28  1  0  0  0  0
 27 46  1  0  0  0  0
 28 29  1  0  0  0  0
M  END
$$$$
