CHEMBL3656054
 OpenBabel04072215373D

 47 50  0  0  0  0  0  0  0  0999 V2000
    2.3706   -0.6378    0.2673 C   0  0  0  0  0  0  0  0  0  0  0  0
    0.9924   -0.2729   -0.1517 C   0  0  0  0  0  0  0  0  0  0  0  0
    0.5431    1.0114   -0.5653 C   0  0  0  0  0  0  0  0  0  0  0  0
   -0.7908    0.8811   -0.8656 C   0  0  0  0  0  0  0  0  0  0  0  0
   -1.2017   -0.3971   -0.6694 O   0  0  0  0  0  0  0  0  0  0  0  0
   -0.1168   -1.1075   -0.2219 C   0  0  0  0  0  0  0  0  0  0  0  0
   -0.2754   -2.5197    0.0897 C   0  0  0  0  0  0  0  0  0  0  0  0
    0.6482   -3.1820    0.5561 O   0  0  0  0  0  0  0  0  0  0  0  0
   -1.5344   -3.0216   -0.2218 N   0  0  0  0  0  0  0  0  0  0  0  0
   -1.9801   -4.3501   -0.0528 C   0  0  0  0  0  0  0  0  0  0  0  0
   -1.2884   -5.2895    0.7163 C   0  0  0  0  0  0  0  0  0  0  0  0
   -1.7078   -6.6190    0.7695 C   0  0  0  0  0  0  0  0  0  0  0  0
   -2.8394   -7.0199    0.0696 C   0  0  0  0  0  0  0  0  0  0  0  0
   -3.6125   -6.0733   -0.6055 C   0  0  0  0  0  0  0  0  0  0  0  0
   -4.7849   -6.3695   -1.2698 O   0  0  0  0  0  0  0  0  0  0  0  0
   -5.5839   -7.4031   -0.8268 C   0  0  0  0  0  0  0  0  0  0  0  0
   -5.7720   -7.7301    0.5136 C   0  0  0  0  0  0  0  0  0  0  0  0
   -6.5791   -8.8134    0.8128 C   0  0  0  0  0  0  0  0  0  0  0  0
   -7.2407   -9.5381   -0.1143 N   0  0  0  0  0  0  0  0  0  0  0  0
   -7.0941   -9.1594   -1.4060 C   0  0  0  0  0  0  0  0  0  0  0  0
   -7.8861   -9.9422   -2.3513 C   0  0  0  0  0  0  0  0  0  0  0  0
   -8.0324   -9.8725   -3.7230 C   0  0  0  0  0  0  0  0  0  0  0  0
   -8.9743  -10.8590   -4.1458 C   0  0  0  0  0  0  0  0  0  0  0  0
   -9.4080  -11.0776   -5.5259 C   0  0  0  0  0  0  0  0  0  0  0  0
   -8.9755  -10.4251   -6.4703 O   0  0  0  0  0  0  0  0  0  0  0  0
  -10.3319  -12.0535   -5.7059 O   0  0  0  0  0  0  0  0  0  0  0  0
   -9.3667  -11.5244   -2.9937 C   0  0  0  0  0  0  0  0  0  0  0  0
   -8.6980  -10.9702   -1.9302 N   0  0  0  0  0  0  0  0  0  0  0  0
   -6.2820   -8.1049   -1.8048 C   0  0  0  0  0  0  0  0  0  0  0  0
   -3.1671   -4.7447   -0.6877 C   0  0  0  0  0  0  0  0  0  0  0  0
    3.0521    0.2133    0.1611 H   0  0  0  0  0  0  0  0  0  0  0  0
    2.7601   -1.4541   -0.3495 H   0  0  0  0  0  0  0  0  0  0  0  0
    2.3870   -0.9524    1.3155 H   0  0  0  0  0  0  0  0  0  0  0  0
    1.1254    1.9207   -0.6365 H   0  0  0  0  0  0  0  0  0  0  0  0
   -1.5483    1.5702   -1.2145 H   0  0  0  0  0  0  0  0  0  0  0  0
   -2.1431   -2.3758   -0.7124 H   0  0  0  0  0  0  0  0  0  0  0  0
   -0.4076   -5.0197    1.2896 H   0  0  0  0  0  0  0  0  0  0  0  0
   -1.1399   -7.3395    1.3515 H   0  0  0  0  0  0  0  0  0  0  0  0
   -3.1117   -8.0714    0.0787 H   0  0  0  0  0  0  0  0  0  0  0  0
   -5.2922   -7.1779    1.3132 H   0  0  0  0  0  0  0  0  0  0  0  0
   -6.7167   -9.1351    1.8416 H   0  0  0  0  0  0  0  0  0  0  0  0
   -7.5311   -9.1745   -4.3826 H   0  0  0  0  0  0  0  0  0  0  0  0
  -10.5851  -12.4791   -4.8688 H   0  0  0  0  0  0  0  0  0  0  0  0
  -10.0545  -12.3383   -2.8119 H   0  0  0  0  0  0  0  0  0  0  0  0
   -8.7769  -11.2417   -0.9570 H   0  0  0  0  0  0  0  0  0  0  0  0
   -6.1868   -7.8283   -2.8476 H   0  0  0  0  0  0  0  0  0  0  0  0
   -3.7439   -4.0358   -1.2761 H   0  0  0  0  0  0  0  0  0  0  0  0
  1  2  1  0  0  0  0
  1 31  1  0  0  0  0
  1 32  1  0  0  0  0
  1 33  1  0  0  0  0
  2  3  1  0  0  0  0
  2  6  2  0  0  0  0
  3  4  2  0  0  0  0
  3 34  1  0  0  0  0
  4  5  1  0  0  0  0
  4 35  1  0  0  0  0
  5  6  1  0  0  0  0
  6  7  1  0  0  0  0
  7  8  2  0  0  0  0
  7  9  1  0  0  0  0
  9 10  1  0  0  0  0
  9 36  1  0  0  0  0
 10 11  1  0  0  0  0
 10 30  2  0  0  0  0
 11 12  2  0  0  0  0
 11 37  1  0  0  0  0
 12 13  1  0  0  0  0
 12 38  1  0  0  0  0
 13 14  2  0  0  0  0
 13 39  1  0  0  0  0
 14 15  1  0  0  0  0
 14 30  1  0  0  0  0
 15 16  1  0  0  0  0
 16 17  1  0  0  0  0
 16 29  2  0  0  0  0
 17 18  2  0  0  0  0
 17 40  1  0  0  0  0
 18 19  1  0  0  0  0
 18 41  1  0  0  0  0
 19 20  2  0  0  0  0
 20 21  1  0  0  0  0
 20 29  1  0  0  0  0
 21 22  2  0  0  0  0
 21 28  1  0  0  0  0
 22 23  1  0  0  0  0
 22 42  1  0  0  0  0
 23 24  1  0  0  0  0
 23 27  2  0  0  0  0
 24 25  2  0  0  0  0
 24 26  1  0  0  0  0
 26 43  1  0  0  0  0
 27 28  1  0  0  0  0
 27 44  1  0  0  0  0
 28 45  1  0  0  0  0
 29 46  1  0  0  0  0
 30 47  1  0  0  0  0
M  END
$$$$
