CHEMBL3690489
 OpenBabel04072215373D

 61 65  0  0  0  0  0  0  0  0999 V2000
    5.3933   -1.4464    3.0734 O   0  0  0  0  0  0  0  0  0  0  0  0
    6.3458   -2.0716    2.6310 C   0  0  0  0  0  0  0  0  0  0  0  0
    7.0599   -2.9530    3.4191 N   0  0  0  0  0  0  0  0  0  0  0  0
    6.7752   -2.9963    4.8569 C   0  0  0  0  0  0  0  0  0  0  0  0
    7.4471   -1.8873    5.6784 C   0  0  0  0  0  0  0  0  0  0  0  0
    8.2811   -1.1362    4.9204 F   0  0  0  0  0  0  0  0  0  0  0  0
    6.5542   -1.0652    6.2639 F   0  0  0  0  0  0  0  0  0  0  0  0
    8.2046   -2.4346    6.6615 F   0  0  0  0  0  0  0  0  0  0  0  0
    6.8448   -2.0378    1.3503 N   0  0  0  0  0  0  0  0  0  0  0  0
    6.3513   -1.3004    0.2545 C   0  0  0  0  0  0  0  0  0  0  0  0
    5.2113   -0.5024    0.3005 C   0  0  0  0  0  0  0  0  0  0  0  0
    4.7607    0.1442   -0.8513 C   0  0  0  0  0  0  0  0  0  0  0  0
    5.4408   -0.0162   -2.0612 C   0  0  0  0  0  0  0  0  0  0  0  0
    6.5959   -0.8035   -2.1338 C   0  0  0  0  0  0  0  0  0  0  0  0
    7.3127   -0.9455   -3.4093 C   0  0  0  0  0  0  0  0  0  0  0  0
    7.4729   -0.0143   -4.4269 C   0  0  0  0  0  0  0  0  0  0  0  0
    8.2305   -0.4961   -5.4590 N   0  0  0  0  0  0  0  0  0  0  0  0
    8.5352   -1.7255   -5.1140 C   0  0  0  0  0  0  0  0  0  0  0  0
    9.2918   -2.7138   -5.8128 C   0  0  0  0  0  0  0  0  0  0  0  0
    9.4946   -3.9486   -5.2931 C   0  0  0  0  0  0  0  0  0  0  0  0
   10.2176   -4.9848   -6.0914 C   0  0  0  0  0  0  0  0  0  0  0  0
   11.2027   -4.6969   -7.0330 C   0  0  0  0  0  0  0  0  0  0  0  0
   11.7642   -5.7352   -7.7836 C   0  0  0  0  0  0  0  0  0  0  0  0
   11.3250   -7.0257   -7.5618 C   0  0  0  0  0  0  0  0  0  0  0  0
   11.8551   -8.0439   -8.3386 O   0  0  0  0  0  0  0  0  0  0  0  0
   10.9280   -9.1295   -8.5496 C   0  0  0  0  0  0  0  0  0  0  0  0
   11.1999  -10.2895   -7.5850 C   0  0  0  0  0  0  0  0  0  0  0  0
   12.3001  -11.2423   -8.0479 C   0  0  0  0  0  0  0  0  0  0  0  0
   12.1117  -11.6921   -9.4245 N   0  0  0  0  0  0  0  0  0  0  0  0
   12.1062  -10.5527  -10.3367 C   0  0  0  0  0  0  0  0  0  0  0  0
   10.9859   -9.5663  -10.0203 C   0  0  0  0  0  0  0  0  0  0  0  0
   10.4147   -7.2985   -6.6055 N   0  0  0  0  0  0  0  0  0  0  0  0
    9.8560   -6.2689   -5.8716 N   0  0  0  0  0  0  0  0  0  0  0  0
    8.8845   -4.2637   -3.9892 C   0  0  0  0  0  0  0  0  0  0  0  0
    8.1403   -3.3514   -3.3439 C   0  0  0  0  0  0  0  0  0  0  0  0
    7.9803   -2.0726   -3.8833 N   0  0  0  0  0  0  0  0  0  0  0  0
    7.0546   -1.4108   -0.9542 C   0  0  0  0  0  0  0  0  0  0  0  0
    8.0262   -3.0902    3.1601 H   0  0  0  0  0  0  0  0  0  0  0  0
    7.1194   -3.9751    5.2060 H   0  0  0  0  0  0  0  0  0  0  0  0
    5.6903   -2.9591    5.0070 H   0  0  0  0  0  0  0  0  0  0  0  0
    7.6134   -2.6613    1.1600 H   0  0  0  0  0  0  0  0  0  0  0  0
    4.6422   -0.3684    1.2152 H   0  0  0  0  0  0  0  0  0  0  0  0
    3.8687    0.7645   -0.8041 H   0  0  0  0  0  0  0  0  0  0  0  0
    5.0490    0.4866   -2.9436 H   0  0  0  0  0  0  0  0  0  0  0  0
    7.0863    0.9976   -4.4564 H   0  0  0  0  0  0  0  0  0  0  0  0
    9.6548   -2.4165   -6.7883 H   0  0  0  0  0  0  0  0  0  0  0  0
   11.5397   -3.6816   -7.2062 H   0  0  0  0  0  0  0  0  0  0  0  0
   12.5058   -5.5276   -8.5459 H   0  0  0  0  0  0  0  0  0  0  0  0
    9.8948   -8.7740   -8.3926 H   0  0  0  0  0  0  0  0  0  0  0  0
   10.2739  -10.8650   -7.4713 H   0  0  0  0  0  0  0  0  0  0  0  0
   11.4698   -9.9093   -6.5926 H   0  0  0  0  0  0  0  0  0  0  0  0
   12.2967  -12.1257   -7.3977 H   0  0  0  0  0  0  0  0  0  0  0  0
   13.2889  -10.7831   -7.9366 H   0  0  0  0  0  0  0  0  0  0  0  0
   11.2353  -12.2080   -9.5049 H   0  0  0  0  0  0  0  0  0  0  0  0
   11.9654  -10.9315  -11.3566 H   0  0  0  0  0  0  0  0  0  0  0  0
   13.0829  -10.0558  -10.3255 H   0  0  0  0  0  0  0  0  0  0  0  0
   10.0314  -10.0415  -10.2765 H   0  0  0  0  0  0  0  0  0  0  0  0
   11.0967   -8.6897  -10.6706 H   0  0  0  0  0  0  0  0  0  0  0  0
    9.0316   -5.2565   -3.5724 H   0  0  0  0  0  0  0  0  0  0  0  0
    7.6476   -3.5822   -2.4111 H   0  0  0  0  0  0  0  0  0  0  0  0
    7.9869   -1.9660   -0.9662 H   0  0  0  0  0  0  0  0  0  0  0  0
  1  2  2  0  0  0  0
  2  3  1  0  0  0  0
  2  9  1  0  0  0  0
  3  4  1  0  0  0  0
  3 38  1  0  0  0  0
  4  5  1  0  0  0  0
  4 39  1  0  0  0  0
  4 40  1  0  0  0  0
  5  6  1  0  0  0  0
  5  7  1  0  0  0  0
  5  8  1  0  0  0  0
  9 10  1  0  0  0  0
  9 41  1  0  0  0  0
 10 11  1  0  0  0  0
 10 37  2  0  0  0  0
 11 12  2  0  0  0  0
 11 42  1  0  0  0  0
 12 13  1  0  0  0  0
 12 43  1  0  0  0  0
 13 14  2  0  0  0  0
 13 44  1  0  0  0  0
 14 15  1  0  0  0  0
 14 37  1  0  0  0  0
 15 16  2  0  0  0  0
 15 36  1  0  0  0  0
 16 17  1  0  0  0  0
 16 45  1  0  0  0  0
 17 18  2  0  0  0  0
 18 19  1  0  0  0  0
 18 36  1  0  0  0  0
 19 20  2  0  0  0  0
 19 46  1  0  0  0  0
 20 21  1  0  0  0  0
 20 34  1  0  0  0  0
 21 22  1  0  0  0  0
 21 33  2  0  0  0  0
 22 23  2  0  0  0  0
 22 47  1  0  0  0  0
 23 24  1  0  0  0  0
 23 48  1  0  0  0  0
 24 25  1  0  0  0  0
 24 32  2  0  0  0  0
 25 26  1  0  0  0  0
 26 27  1  0  0  0  0
 26 31  1  0  0  0  0
 26 49  1  0  0  0  0
 27 28  1  0  0  0  0
 27 50  1  0  0  0  0
 27 51  1  0  0  0  0
 28 29  1  0  0  0  0
 28 52  1  0  0  0  0
 28 53  1  0  0  0  0
 29 30  1  0  0  0  0
 29 54  1  0  0  0  0
 30 31  1  0  0  0  0
 30 55  1  0  0  0  0
 30 56  1  0  0  0  0
 31 57  1  0  0  0  0
 31 58  1  0  0  0  0
 32 33  1  0  0  0  0
 34 35  2  0  0  0  0
 34 59  1  0  0  0  0
 35 36  1  0  0  0  0
 35 60  1  0  0  0  0
 37 61  1  0  0  0  0
M  END
$$$$
