CHEMBL3931953
 OpenBabel04072215373D

 54 58  0  0  0  0  0  0  0  0999 V2000
    6.2397    0.8888   -1.8163 O   0  0  0  0  0  0  0  0  0  0  0  0
    5.9646   -0.1645   -1.2407 C   0  0  0  0  0  0  0  0  0  0  0  0
    6.8744   -0.8672   -0.4675 N   0  0  0  0  0  0  0  0  0  0  0  0
    8.2050   -0.4364   -0.4768 N   0  0  0  0  0  0  0  0  0  0  0  0
    9.2140   -1.3787   -0.2393 C   0  0  0  0  0  0  0  0  0  0  0  0
    9.1362   -2.6862   -0.7124 C   0  0  0  0  0  0  0  0  0  0  0  0
   10.1976   -3.5660   -0.4910 C   0  0  0  0  0  0  0  0  0  0  0  0
   11.3245   -3.1062    0.1762 C   0  0  0  0  0  0  0  0  0  0  0  0
   11.3348   -1.7892    0.5993 C   0  0  0  0  0  0  0  0  0  0  0  0
   10.3082   -0.9282    0.4139 N   0  0  0  0  0  0  0  0  0  0  0  0
    4.6216   -0.7822   -1.4521 C   0  0  0  0  0  0  0  0  0  0  0  0
    4.0724   -0.5665   -2.7396 C   0  0  0  0  0  0  0  0  0  0  0  0
    2.8753   -1.1412   -3.1278 C   0  0  0  0  0  0  0  0  0  0  0  0
    2.1927   -1.9610   -2.2408 C   0  0  0  0  0  0  0  0  0  0  0  0
    2.7035   -2.1722   -0.9607 C   0  0  0  0  0  0  0  0  0  0  0  0
    3.9000   -1.5689   -0.5303 C   0  0  0  0  0  0  0  0  0  0  0  0
    4.4026   -1.9245    1.1510 S   0  0  0  0  0  0  0  0  0  0  0  0
    3.1370   -1.1104    2.1351 C   0  0  0  0  0  0  0  0  0  0  0  0
    1.8742   -1.6785    2.3801 C   0  0  0  0  0  0  0  0  0  0  0  0
    0.8938   -1.0091    3.1546 C   0  0  0  0  0  0  0  0  0  0  0  0
    1.2701    0.1656    3.8384 C   0  0  0  0  0  0  0  0  0  0  0  0
    0.7287    1.2080    4.6725 C   0  0  0  0  0  0  0  0  0  0  0  0
   -0.0347    2.3778    4.2703 C   0  0  0  0  0  0  0  0  0  0  0  0
   -0.5594    2.6482    3.0633 C   0  0  0  0  0  0  0  0  0  0  0  0
   -0.8238    4.0251    2.5822 C   0  0  0  0  0  0  0  0  0  0  0  0
   -1.3571    4.2166    1.3110 C   0  0  0  0  0  0  0  0  0  0  0  0
   -1.4729    5.5116    0.8054 C   0  0  0  0  0  0  0  0  0  0  0  0
   -1.0381    6.5844    1.5703 C   0  0  0  0  0  0  0  0  0  0  0  0
   -0.5051    6.3142    2.8194 C   0  0  0  0  0  0  0  0  0  0  0  0
   -0.3911    5.0674    3.3399 N   0  0  0  0  0  0  0  0  0  0  0  0
    1.6806    1.4742    5.5909 N   0  0  0  0  0  0  0  0  0  0  0  0
    2.7893    1.3433    4.8457 N   0  0  0  0  0  0  0  0  0  0  0  0
    2.6073    0.5209    3.7616 C   0  0  0  0  0  0  0  0  0  0  0  0
    3.5142    0.0432    2.8220 C   0  0  0  0  0  0  0  0  0  0  0  0
    6.6321   -1.6857    0.0828 H   0  0  0  0  0  0  0  0  0  0  0  0
    8.3953    0.4387    0.0067 H   0  0  0  0  0  0  0  0  0  0  0  0
    8.2682   -3.0215   -1.2694 H   0  0  0  0  0  0  0  0  0  0  0  0
   10.1486   -4.5862   -0.8545 H   0  0  0  0  0  0  0  0  0  0  0  0
   12.1755   -3.7537    0.3523 H   0  0  0  0  0  0  0  0  0  0  0  0
   12.2007   -1.3747    1.1085 H   0  0  0  0  0  0  0  0  0  0  0  0
    4.6168    0.0576   -3.4588 H   0  0  0  0  0  0  0  0  0  0  0  0
    2.4802   -0.9668   -4.1261 H   0  0  0  0  0  0  0  0  0  0  0  0
    1.2631   -2.4393   -2.5389 H   0  0  0  0  0  0  0  0  0  0  0  0
    2.1501   -2.8305   -0.2963 H   0  0  0  0  0  0  0  0  0  0  0  0
    1.6404   -2.6673    1.9914 H   0  0  0  0  0  0  0  0  0  0  0  0
   -0.0752   -1.4706    3.3312 H   0  0  0  0  0  0  0  0  0  0  0  0
    0.0854    3.2170    4.9621 H   0  0  0  0  0  0  0  0  0  0  0  0
   -0.6420    1.8676    2.3191 H   0  0  0  0  0  0  0  0  0  0  0  0
   -1.6571    3.3716    0.7022 H   0  0  0  0  0  0  0  0  0  0  0  0
   -1.8816    5.6765   -0.1875 H   0  0  0  0  0  0  0  0  0  0  0  0
   -1.1012    7.6023    1.1999 H   0  0  0  0  0  0  0  0  0  0  0  0
   -0.1336    7.1196    3.4493 H   0  0  0  0  0  0  0  0  0  0  0  0
    3.6517    1.7425    5.1896 H   0  0  0  0  0  0  0  0  0  0  0  0
    4.5043    0.4771    2.7182 H   0  0  0  0  0  0  0  0  0  0  0  0
  1  2  2  0  0  0  0
  2  3  1  0  0  0  0
  2 11  1  0  0  0  0
  3  4  1  0  0  0  0
  3 35  1  0  0  0  0
  4  5  1  0  0  0  0
  4 36  1  0  0  0  0
  5  6  1  0  0  0  0
  5 10  2  0  0  0  0
  6  7  2  0  0  0  0
  6 37  1  0  0  0  0
  7  8  1  0  0  0  0
  7 38  1  0  0  0  0
  8  9  2  0  0  0  0
  8 39  1  0  0  0  0
  9 10  1  0  0  0  0
  9 40  1  0  0  0  0
 11 12  1  0  0  0  0
 11 16  2  0  0  0  0
 12 13  2  0  0  0  0
 12 41  1  0  0  0  0
 13 14  1  0  0  0  0
 13 42  1  0  0  0  0
 14 15  2  0  0  0  0
 14 43  1  0  0  0  0
 15 16  1  0  0  0  0
 15 44  1  0  0  0  0
 16 17  1  0  0  0  0
 17 18  1  0  0  0  0
 18 19  1  0  0  0  0
 18 34  2  0  0  0  0
 19 20  2  0  0  0  0
 19 45  1  0  0  0  0
 20 21  1  0  0  0  0
 20 46  1  0  0  0  0
 21 22  1  0  0  0  0
 21 33  2  0  0  0  0
 22 23  1  0  0  0  0
 22 31  2  0  0  0  0
 23 24  2  0  0  0  0
 23 47  1  0  0  0  0
 24 25  1  0  0  0  0
 24 48  1  0  0  0  0
 25 26  1  0  0  0  0
 25 30  2  0  0  0  0
 26 27  2  0  0  0  0
 26 49  1  0  0  0  0
 27 28  1  0  0  0  0
 27 50  1  0  0  0  0
 28 29  2  0  0  0  0
 28 51  1  0  0  0  0
 29 30  1  0  0  0  0
 29 52  1  0  0  0  0
 31 32  1  0  0  0  0
 32 33  1  0  0  0  0
 32 53  1  0  0  0  0
 33 34  1  0  0  0  0
 34 54  1  0  0  0  0
M  END
$$$$
