CHEMBL598022
 OpenBabel04072215383D

 82 84  0  0  0  0  0  0  0  0999 V2000
    2.3166   -0.5242  -12.9241 C   0  0  0  0  0  0  0  0  0  0  0  0
    3.0209   -1.6836  -12.2411 C   0  0  0  0  0  0  0  0  0  0  0  0
    4.2543   -1.2000  -11.4894 C   0  0  0  0  0  0  0  0  0  0  0  0
    4.9602   -2.3617  -10.8041 C   0  0  0  0  0  0  0  0  0  0  0  0
    6.1890   -1.8660  -10.0557 C   0  0  0  0  0  0  0  0  0  0  0  0
    6.8922   -3.0276   -9.3734 C   0  0  0  0  0  0  0  0  0  0  0  0
    8.1187   -2.5336   -8.6264 C   0  0  0  0  0  0  0  0  0  0  0  0
    8.8155   -3.6983   -7.9440 C   0  0  0  0  0  0  0  0  0  0  0  0
   10.0368   -3.2001   -7.1922 C   0  0  0  0  0  0  0  0  0  0  0  0
   10.7417   -4.3565   -6.5010 C   0  0  0  0  0  0  0  0  0  0  0  0
   11.9628   -3.8394   -5.7541 C   0  0  0  0  0  0  0  0  0  0  0  0
   12.7460   -4.9590   -5.0762 C   0  0  0  0  0  0  0  0  0  0  0  0
   13.1995   -5.9878   -6.0028 N   0  0  0  0  0  0  0  0  0  0  0  0
   14.1255   -5.6229   -6.9798 C   0  0  0  0  0  0  0  0  0  0  0  0
   14.5736   -4.4855   -7.1107 O   0  0  0  0  0  0  0  0  0  0  0  0
   14.5863   -6.6814   -7.9065 C   0  0  0  0  0  0  0  0  0  0  0  0
   15.5219   -6.3477   -8.8925 C   0  0  0  0  0  0  0  0  0  0  0  0
   15.9748   -7.3267   -9.7673 C   0  0  0  0  0  0  0  0  0  0  0  0
   15.4685   -8.6217   -9.6758 C   0  0  0  0  0  0  0  0  0  0  0  0
   14.4983   -8.9824   -8.7080 C   0  0  0  0  0  0  0  0  0  0  0  0
   13.9084  -10.2799   -8.6335 C   0  0  0  0  0  0  0  0  0  0  0  0
   14.2042  -11.2449   -9.5986 N   0  0  0  0  0  0  0  0  0  0  0  0
   13.3274  -12.4024   -9.7504 C   0  0  0  0  0  0  0  0  0  0  0  0
   13.6333  -13.1231  -11.0617 C   0  0  0  0  0  0  0  0  0  0  0  0
   14.9727  -13.7300  -11.0454 N   0  0  0  0  0  0  0  0  0  0  0  0
   15.1923  -14.3847  -12.3363 C   0  0  0  0  0  0  0  0  0  0  0  0
   16.5837  -15.0304  -12.4253 C   0  0  0  0  0  0  0  0  0  0  0  0
   16.8123  -15.7026  -13.7194 N   0  0  0  0  0  0  0  0  0  0  0  0
   16.7292  -14.7662  -14.8436 C   0  0  0  0  0  0  0  0  0  0  0  0
   18.1259  -16.3480  -13.7121 C   0  0  0  0  0  0  0  0  0  0  0  0
   12.9443  -10.5332   -7.6455 C   0  0  0  0  0  0  0  0  0  0  0  0
   12.5521   -9.5532   -6.7449 C   0  0  0  0  0  0  0  0  0  0  0  0
   13.1184   -8.2879   -6.8233 C   0  0  0  0  0  0  0  0  0  0  0  0
   14.0684   -7.9784   -7.8009 C   0  0  0  0  0  0  0  0  0  0  0  0
   12.6834   -7.2720   -5.8430 C   0  0  0  0  0  0  0  0  0  0  0  0
   11.9095   -7.5987   -4.9514 O   0  0  0  0  0  0  0  0  0  0  0  0
    1.4347   -0.8798  -13.4601 H   0  0  0  0  0  0  0  0  0  0  0  0
    2.9830   -0.0344  -13.6421 H   0  0  0  0  0  0  0  0  0  0  0  0
    1.9968    0.2223  -12.1895 H   0  0  0  0  0  0  0  0  0  0  0  0
    3.3096   -2.4285  -12.9918 H   0  0  0  0  0  0  0  0  0  0  0  0
    2.3284   -2.1731  -11.5465 H   0  0  0  0  0  0  0  0  0  0  0  0
    3.9647   -0.4527  -10.7403 H   0  0  0  0  0  0  0  0  0  0  0  0
    4.9457   -0.7092  -12.1853 H   0  0  0  0  0  0  0  0  0  0  0  0
    5.2580   -3.1101  -11.5484 H   0  0  0  0  0  0  0  0  0  0  0  0
    4.2754   -2.8552  -10.1038 H   0  0  0  0  0  0  0  0  0  0  0  0
    5.8954   -1.1192   -9.3075 H   0  0  0  0  0  0  0  0  0  0  0  0
    6.8780   -1.3727  -10.7524 H   0  0  0  0  0  0  0  0  0  0  0  0
    7.1881   -3.7754  -10.1196 H   0  0  0  0  0  0  0  0  0  0  0  0
    6.2057   -3.5208   -8.6741 H   0  0  0  0  0  0  0  0  0  0  0  0
    7.8258   -1.7856   -7.8796 H   0  0  0  0  0  0  0  0  0  0  0  0
    8.8088   -2.0423   -9.3236 H   0  0  0  0  0  0  0  0  0  0  0  0
    9.1137   -4.4444   -8.6909 H   0  0  0  0  0  0  0  0  0  0  0  0
    8.1254   -4.1922   -7.2490 H   0  0  0  0  0  0  0  0  0  0  0  0
    9.7395   -2.4485   -6.4514 H   0  0  0  0  0  0  0  0  0  0  0  0
   10.7258   -2.7112   -7.8926 H   0  0  0  0  0  0  0  0  0  0  0  0
   11.0329   -5.0963   -7.2572 H   0  0  0  0  0  0  0  0  0  0  0  0
   10.0572   -4.8564   -5.8056 H   0  0  0  0  0  0  0  0  0  0  0  0
   11.6478   -3.1156   -4.9892 H   0  0  0  0  0  0  0  0  0  0  0  0
   12.6014   -3.2858   -6.4493 H   0  0  0  0  0  0  0  0  0  0  0  0
   12.1183   -5.3971   -4.2872 H   0  0  0  0  0  0  0  0  0  0  0  0
   13.6309   -4.5392   -4.5845 H   0  0  0  0  0  0  0  0  0  0  0  0
   15.8968   -5.3291   -8.9788 H   0  0  0  0  0  0  0  0  0  0  0  0
   16.7126   -7.0732  -10.5272 H   0  0  0  0  0  0  0  0  0  0  0  0
   15.8338   -9.3627  -10.3869 H   0  0  0  0  0  0  0  0  0  0  0  0
   15.1929  -11.4525   -9.7314 H   0  0  0  0  0  0  0  0  0  0  0  0
   12.2848  -12.0797   -9.7933 H   0  0  0  0  0  0  0  0  0  0  0  0
   13.4485  -13.0955   -8.9082 H   0  0  0  0  0  0  0  0  0  0  0  0
   13.5617  -12.4000  -11.8846 H   0  0  0  0  0  0  0  0  0  0  0  0
   12.8719  -13.8958  -11.2222 H   0  0  0  0  0  0  0  0  0  0  0  0
   15.0257  -14.4223  -10.2982 H   0  0  0  0  0  0  0  0  0  0  0  0
   15.0887  -13.6205  -13.1128 H   0  0  0  0  0  0  0  0  0  0  0  0
   14.4260  -15.1520  -12.5058 H   0  0  0  0  0  0  0  0  0  0  0  0
   16.6607  -15.7755  -11.6211 H   0  0  0  0  0  0  0  0  0  0  0  0
   17.3562  -14.2730  -12.2360 H   0  0  0  0  0  0  0  0  0  0  0  0
   15.7178  -14.3638  -14.9562 H   0  0  0  0  0  0  0  0  0  0  0  0
   16.9415  -15.2778  -15.7886 H   0  0  0  0  0  0  0  0  0  0  0  0
   17.4275  -13.9286  -14.7344 H   0  0  0  0  0  0  0  0  0  0  0  0
   18.1869  -17.0906  -12.9089 H   0  0  0  0  0  0  0  0  0  0  0  0
   18.9382  -15.6245  -13.5783 H   0  0  0  0  0  0  0  0  0  0  0  0
   18.2923  -16.8862  -14.6514 H   0  0  0  0  0  0  0  0  0  0  0  0
   12.4752  -11.5079   -7.5496 H   0  0  0  0  0  0  0  0  0  0  0  0
   11.7929   -9.7865   -6.0034 H   0  0  0  0  0  0  0  0  0  0  0  0
  1  2  1  0  0  0  0
  1 37  1  0  0  0  0
  1 38  1  0  0  0  0
  1 39  1  0  0  0  0
  2  3  1  0  0  0  0
  2 40  1  0  0  0  0
  2 41  1  0  0  0  0
  3  4  1  0  0  0  0
  3 42  1  0  0  0  0
  3 43  1  0  0  0  0
  4  5  1  0  0  0  0
  4 44  1  0  0  0  0
  4 45  1  0  0  0  0
  5  6  1  0  0  0  0
  5 46  1  0  0  0  0
  5 47  1  0  0  0  0
  6  7  1  0  0  0  0
  6 48  1  0  0  0  0
  6 49  1  0  0  0  0
  7  8  1  0  0  0  0
  7 50  1  0  0  0  0
  7 51  1  0  0  0  0
  8  9  1  0  0  0  0
  8 52  1  0  0  0  0
  8 53  1  0  0  0  0
  9 10  1  0  0  0  0
  9 54  1  0  0  0  0
  9 55  1  0  0  0  0
 10 11  1  0  0  0  0
 10 56  1  0  0  0  0
 10 57  1  0  0  0  0
 11 12  1  0  0  0  0
 11 58  1  0  0  0  0
 11 59  1  0  0  0  0
 12 13  1  0  0  0  0
 12 60  1  0  0  0  0
 12 61  1  0  0  0  0
 13 14  1  0  0  0  0
 13 35  1  0  0  0  0
 14 15  2  0  0  0  0
 14 16  1  0  0  0  0
 16 17  1  0  0  0  0
 16 34  2  0  0  0  0
 17 18  2  0  0  0  0
 17 62  1  0  0  0  0
 18 19  1  0  0  0  0
 18 63  1  0  0  0  0
 19 20  2  0  0  0  0
 19 64  1  0  0  0  0
 20 21  1  0  0  0  0
 20 34  1  0  0  0  0
 21 22  1  0  0  0  0
 21 31  2  0  0  0  0
 22 23  1  0  0  0  0
 22 65  1  0  0  0  0
 23 24  1  0  0  0  0
 23 66  1  0  0  0  0
 23 67  1  0  0  0  0
 24 25  1  0  0  0  0
 24 68  1  0  0  0  0
 24 69  1  0  0  0  0
 25 26  1  0  0  0  0
 25 70  1  0  0  0  0
 26 27  1  0  0  0  0
 26 71  1  0  0  0  0
 26 72  1  0  0  0  0
 27 28  1  0  0  0  0
 27 73  1  0  0  0  0
 27 74  1  0  0  0  0
 28 29  1  0  0  0  0
 28 30  1  0  0  0  0
 29 75  1  0  0  0  0
 29 76  1  0  0  0  0
 29 77  1  0  0  0  0
 30 78  1  0  0  0  0
 30 79  1  0  0  0  0
 30 80  1  0  0  0  0
 31 32  1  0  0  0  0
 31 81  1  0  0  0  0
 32 33  2  0  0  0  0
 32 82  1  0  0  0  0
 33 34  1  0  0  0  0
 33 35  1  0  0  0  0
 35 36  2  0  0  0  0
M  END
$$$$
