CHEMBL3358994
 OpenBabel04072215363D

 43 45  0  0  0  0  0  0  0  0999 V2000
    1.1162    0.4407   -0.2427 C   0  0  0  0  0  0  0  0  0  0  0  0
    2.4504   -0.0247   -0.0521 O   0  0  0  0  0  0  0  0  0  0  0  0
    3.1243   -0.4502   -1.1694 C   0  0  0  0  0  0  0  0  0  0  0  0
    2.8001    0.0217   -2.4483 C   0  0  0  0  0  0  0  0  0  0  0  0
    3.5164   -0.3841   -3.5758 C   0  0  0  0  0  0  0  0  0  0  0  0
    3.1901    0.1381   -4.9326 C   0  0  0  0  0  0  0  0  0  0  0  0
    4.1454    0.2126   -5.8231 N   0  0  0  0  0  0  0  0  0  0  0  0
    3.8583    0.7638   -7.0560 C   0  0  0  0  0  0  0  0  0  0  0  0
    4.9557    0.7881   -8.0584 C   0  0  0  0  0  0  0  0  0  0  0  0
    6.2918    0.9106   -7.6395 C   0  0  0  0  0  0  0  0  0  0  0  0
    7.3418    0.8966   -8.5627 C   0  0  0  0  0  0  0  0  0  0  0  0
    7.0711    0.7562   -9.9220 C   0  0  0  0  0  0  0  0  0  0  0  0
    5.7533    0.6250  -10.3494 C   0  0  0  0  0  0  0  0  0  0  0  0
    5.4107    0.4421  -12.0263 Cl  0  0  0  0  0  0  0  0  0  0  0  0
    4.7033    0.6328   -9.4310 C   0  0  0  0  0  0  0  0  0  0  0  0
    2.6557    1.2895   -7.3571 C   0  0  0  0  0  0  0  0  0  0  0  0
    1.6216    1.2199   -6.4698 N   0  0  0  0  0  0  0  0  0  0  0  0
    1.7507    0.5957   -5.2553 C   0  0  0  0  0  0  0  0  0  0  0  0
    0.8048    0.4138   -4.5063 O   0  0  0  0  0  0  0  0  0  0  0  0
    4.6173   -1.2312   -3.4196 C   0  0  0  0  0  0  0  0  0  0  0  0
    4.9921   -1.6695   -2.1453 C   0  0  0  0  0  0  0  0  0  0  0  0
    6.0760   -2.4924   -1.9362 O   0  0  0  0  0  0  0  0  0  0  0  0
    7.1691   -2.3015   -2.8295 C   0  0  0  0  0  0  0  0  0  0  0  0
    4.2271   -1.3116   -1.0140 C   0  0  0  0  0  0  0  0  0  0  0  0
    4.6983   -1.7949    0.1852 O   0  0  0  0  0  0  0  0  0  0  0  0
    3.7339   -2.0847    1.1886 C   0  0  0  0  0  0  0  0  0  0  0  0
    0.6716    0.5974    0.7443 H   0  0  0  0  0  0  0  0  0  0  0  0
    0.5091   -0.3017   -0.7725 H   0  0  0  0  0  0  0  0  0  0  0  0
    1.1014    1.4058   -0.7590 H   0  0  0  0  0  0  0  0  0  0  0  0
    2.0058    0.7480   -2.5669 H   0  0  0  0  0  0  0  0  0  0  0  0
    6.5232    1.0135   -6.5800 H   0  0  0  0  0  0  0  0  0  0  0  0
    8.3687    0.9889   -8.2179 H   0  0  0  0  0  0  0  0  0  0  0  0
    7.8874    0.7411  -10.6387 H   0  0  0  0  0  0  0  0  0  0  0  0
    3.6891    0.4956   -9.7961 H   0  0  0  0  0  0  0  0  0  0  0  0
    2.4297    1.7657   -8.3041 H   0  0  0  0  0  0  0  0  0  0  0  0
    0.6992    1.5560   -6.7155 H   0  0  0  0  0  0  0  0  0  0  0  0
    5.1724   -1.5410   -4.2994 H   0  0  0  0  0  0  0  0  0  0  0  0
    8.0494   -2.7819   -2.3921 H   0  0  0  0  0  0  0  0  0  0  0  0
    7.4023   -1.2392   -2.9657 H   0  0  0  0  0  0  0  0  0  0  0  0
    6.9718   -2.7847   -3.7916 H   0  0  0  0  0  0  0  0  0  0  0  0
    4.1906   -2.7857    1.8947 H   0  0  0  0  0  0  0  0  0  0  0  0
    2.8390   -2.5656    0.7788 H   0  0  0  0  0  0  0  0  0  0  0  0
    3.4826   -1.1842    1.7563 H   0  0  0  0  0  0  0  0  0  0  0  0
  1  2  1  0  0  0  0
  1 27  1  0  0  0  0
  1 28  1  0  0  0  0
  1 29  1  0  0  0  0
  2  3  1  0  0  0  0
  3  4  1  0  0  0  0
  3 24  2  0  0  0  0
  4  5  2  0  0  0  0
  4 30  1  0  0  0  0
  5  6  1  0  0  0  0
  5 20  1  0  0  0  0
  6  7  2  0  0  0  0
  6 18  1  0  0  0  0
  7  8  1  0  0  0  0
  8  9  1  0  0  0  0
  8 16  2  0  0  0  0
  9 10  1  0  0  0  0
  9 15  2  0  0  0  0
 10 11  2  0  0  0  0
 10 31  1  0  0  0  0
 11 12  1  0  0  0  0
 11 32  1  0  0  0  0
 12 13  2  0  0  0  0
 12 33  1  0  0  0  0
 13 14  1  0  0  0  0
 13 15  1  0  0  0  0
 15 34  1  0  0  0  0
 16 17  1  0  0  0  0
 16 35  1  0  0  0  0
 17 18  1  0  0  0  0
 17 36  1  0  0  0  0
 18 19  2  0  0  0  0
 20 21  2  0  0  0  0
 20 37  1  0  0  0  0
 21 22  1  0  0  0  0
 21 24  1  0  0  0  0
 22 23  1  0  0  0  0
 23 38  1  0  0  0  0
 23 39  1  0  0  0  0
 23 40  1  0  0  0  0
 24 25  1  0  0  0  0
 25 26  1  0  0  0  0
 26 41  1  0  0  0  0
 26 42  1  0  0  0  0
 26 43  1  0  0  0  0
M  END
$$$$
