CHEMBL593860
 OpenBabel04072215383D

 75 80  0  0  0  0  0  0  0  0999 V2000
    2.5309    0.9689   -0.7000 C   0  0  0  0  0  0  0  0  0  0  0  0
    2.2380   -0.3247   -0.1816 O   0  0  0  0  0  0  0  0  0  0  0  0
    3.0399   -0.8369    0.8002 C   0  0  0  0  0  0  0  0  0  0  0  0
    4.2586   -0.2636    1.1493 C   0  0  0  0  0  0  0  0  0  0  0  0
    4.9909   -0.7100    2.2716 C   0  0  0  0  0  0  0  0  0  0  0  0
    6.1729   -0.1026    2.7253 C   0  0  0  0  0  0  0  0  0  0  0  0
    6.6406    1.0589    2.0467 N   0  0  0  0  0  0  0  0  0  0  0  0
    7.8628    1.7408    2.2250 C   0  0  0  0  0  0  0  0  0  0  0  0
    9.0256    1.1276    2.6752 C   0  0  0  0  0  0  0  0  0  0  0  0
   10.2053    1.8553    2.8551 C   0  0  0  0  0  0  0  0  0  0  0  0
   10.2847    3.2301    2.5660 C   0  0  0  0  0  0  0  0  0  0  0  0
   11.5551    3.9303    2.9262 C   0  0  0  0  0  0  0  0  0  0  0  0
   12.6006    3.3367    3.4889 N   0  0  0  0  0  0  0  0  0  0  0  0
   13.5488    4.2729    3.8941 C   0  0  0  0  0  0  0  0  0  0  0  0
   14.7559    4.0229    4.5861 C   0  0  0  0  0  0  0  0  0  0  0  0
   15.5633    5.0943    4.9931 C   0  0  0  0  0  0  0  0  0  0  0  0
   15.1952    6.4072    4.7074 C   0  0  0  0  0  0  0  0  0  0  0  0
   14.0332    6.6754    3.9846 C   0  0  0  0  0  0  0  0  0  0  0  0
   13.2307    5.5934    3.5922 C   0  0  0  0  0  0  0  0  0  0  0  0
   11.7653    5.6274    2.7185 S   0  0  0  0  0  0  0  0  0  0  0  0
    9.1256    3.8340    2.0190 C   0  0  0  0  0  0  0  0  0  0  0  0
    9.1650    5.1566    1.6576 O   0  0  0  0  0  0  0  0  0  0  0  0
    7.9311    5.8689    1.5890 C   0  0  0  0  0  0  0  0  0  0  0  0
    7.9561    3.0755    1.8209 C   0  0  0  0  0  0  0  0  0  0  0  0
    6.8464   -0.5763    3.7872 N   0  0  0  0  0  0  0  0  0  0  0  0
    6.3329   -1.6460    4.3985 C   0  0  0  0  0  0  0  0  0  0  0  0
    5.2044   -2.2835    4.0638 N   0  0  0  0  0  0  0  0  0  0  0  0
    4.5392   -1.8109    3.0054 C   0  0  0  0  0  0  0  0  0  0  0  0
    3.3646   -2.4318    2.6003 C   0  0  0  0  0  0  0  0  0  0  0  0
    2.6214   -1.9796    1.4994 C   0  0  0  0  0  0  0  0  0  0  0  0
    1.5145   -2.7526    1.2267 O   0  0  0  0  0  0  0  0  0  0  0  0
    1.1073   -2.7553   -0.1403 C   0  0  0  0  0  0  0  0  0  0  0  0
    0.4585   -4.0851   -0.5076 C   0  0  0  0  0  0  0  0  0  0  0  0
    0.1575   -4.0643   -2.0110 C   0  0  0  0  0  0  0  0  0  0  0  0
   -0.4972   -5.2696   -2.5274 N   0  0  0  0  0  0  0  0  0  0  0  0
   -0.8185   -5.0833   -3.9592 C   0  0  0  0  0  0  0  0  0  0  0  0
   -1.4906   -6.3305   -4.5691 C   0  0  0  0  0  0  0  0  0  0  0  0
   -0.7112   -7.5762   -4.4301 N   0  0  0  0  0  0  0  0  0  0  0  0
    0.4476   -7.5911   -5.3195 C   0  0  0  0  0  0  0  0  0  0  0  0
   -0.3116   -7.7327   -3.0166 C   0  0  0  0  0  0  0  0  0  0  0  0
    0.3296   -6.4821   -2.3650 C   0  0  0  0  0  0  0  0  0  0  0  0
    3.1849    0.8757   -1.5725 H   0  0  0  0  0  0  0  0  0  0  0  0
    2.9658    1.6506    0.0380 H   0  0  0  0  0  0  0  0  0  0  0  0
    1.5884    1.4212   -1.0211 H   0  0  0  0  0  0  0  0  0  0  0  0
    4.6727    0.5394    0.5501 H   0  0  0  0  0  0  0  0  0  0  0  0
    5.8735    1.7228    1.9953 H   0  0  0  0  0  0  0  0  0  0  0  0
    9.0294    0.0654    2.9190 H   0  0  0  0  0  0  0  0  0  0  0  0
   11.0756    1.3288    3.2586 H   0  0  0  0  0  0  0  0  0  0  0  0
   15.0439    3.0028    4.8206 H   0  0  0  0  0  0  0  0  0  0  0  0
   16.4783    4.9051    5.5497 H   0  0  0  0  0  0  0  0  0  0  0  0
   15.8141    7.2357    5.0454 H   0  0  0  0  0  0  0  0  0  0  0  0
   13.7425    7.6940    3.7487 H   0  0  0  0  0  0  0  0  0  0  0  0
    8.1512    6.9315    1.6872 H   0  0  0  0  0  0  0  0  0  0  0  0
    7.2513    5.5931    2.4015 H   0  0  0  0  0  0  0  0  0  0  0  0
    7.4660    5.7024    0.6127 H   0  0  0  0  0  0  0  0  0  0  0  0
    7.0839    3.5282    1.3558 H   0  0  0  0  0  0  0  0  0  0  0  0
    6.8885   -2.0336    5.2447 H   0  0  0  0  0  0  0  0  0  0  0  0
    3.0170   -3.3030    3.1529 H   0  0  0  0  0  0  0  0  0  0  0  0
    1.9686   -2.6281   -0.8079 H   0  0  0  0  0  0  0  0  0  0  0  0
    0.3847   -1.9459   -0.2932 H   0  0  0  0  0  0  0  0  0  0  0  0
   -0.4541   -4.2411    0.0801 H   0  0  0  0  0  0  0  0  0  0  0  0
    1.1452   -4.8971   -0.2430 H   0  0  0  0  0  0  0  0  0  0  0  0
    1.0869   -3.8735   -2.5643 H   0  0  0  0  0  0  0  0  0  0  0  0
   -0.5018   -3.2063   -2.1994 H   0  0  0  0  0  0  0  0  0  0  0  0
    0.0893   -4.8388   -4.5293 H   0  0  0  0  0  0  0  0  0  0  0  0
   -1.5029   -4.2342   -4.0752 H   0  0  0  0  0  0  0  0  0  0  0  0
   -1.7229   -6.1455   -5.6251 H   0  0  0  0  0  0  0  0  0  0  0  0
   -2.4609   -6.4776   -4.0759 H   0  0  0  0  0  0  0  0  0  0  0  0
    0.1323   -7.4604   -6.3607 H   0  0  0  0  0  0  0  0  0  0  0  0
    0.9503   -8.5630   -5.2666 H   0  0  0  0  0  0  0  0  0  0  0  0
    1.1854   -6.8159   -5.0895 H   0  0  0  0  0  0  0  0  0  0  0  0
    0.3668   -8.5880   -2.9082 H   0  0  0  0  0  0  0  0  0  0  0  0
   -1.2100   -7.9954   -2.4421 H   0  0  0  0  0  0  0  0  0  0  0  0
    1.3311   -6.3226   -2.7855 H   0  0  0  0  0  0  0  0  0  0  0  0
    0.4562   -6.7051   -1.3001 H   0  0  0  0  0  0  0  0  0  0  0  0
  1  2  1  0  0  0  0
  1 42  1  0  0  0  0
  1 43  1  0  0  0  0
  1 44  1  0  0  0  0
  2  3  1  0  0  0  0
  3  4  1  0  0  0  0
  3 30  2  0  0  0  0
  4  5  2  0  0  0  0
  4 45  1  0  0  0  0
  5  6  1  0  0  0  0
  5 28  1  0  0  0  0
  6  7  1  0  0  0  0
  6 25  2  0  0  0  0
  7  8  1  0  0  0  0
  7 46  1  0  0  0  0
  8  9  1  0  0  0  0
  8 24  2  0  0  0  0
  9 10  2  0  0  0  0
  9 47  1  0  0  0  0
 10 11  1  0  0  0  0
 10 48  1  0  0  0  0
 11 12  1  0  0  0  0
 11 21  2  0  0  0  0
 12 13  2  0  0  0  0
 12 20  1  0  0  0  0
 13 14  1  0  0  0  0
 14 15  1  0  0  0  0
 14 19  2  0  0  0  0
 15 16  2  0  0  0  0
 15 49  1  0  0  0  0
 16 17  1  0  0  0  0
 16 50  1  0  0  0  0
 17 18  2  0  0  0  0
 17 51  1  0  0  0  0
 18 19  1  0  0  0  0
 18 52  1  0  0  0  0
 19 20  1  0  0  0  0
 21 22  1  0  0  0  0
 21 24  1  0  0  0  0
 22 23  1  0  0  0  0
 23 53  1  0  0  0  0
 23 54  1  0  0  0  0
 23 55  1  0  0  0  0
 24 56  1  0  0  0  0
 25 26  1  0  0  0  0
 26 27  2  0  0  0  0
 26 57  1  0  0  0  0
 27 28  1  0  0  0  0
 28 29  2  0  0  0  0
 29 30  1  0  0  0  0
 29 58  1  0  0  0  0
 30 31  1  0  0  0  0
 31 32  1  0  0  0  0
 32 33  1  0  0  0  0
 32 59  1  0  0  0  0
 32 60  1  0  0  0  0
 33 34  1  0  0  0  0
 33 61  1  0  0  0  0
 33 62  1  0  0  0  0
 34 35  1  0  0  0  0
 34 63  1  0  0  0  0
 34 64  1  0  0  0  0
 35 36  1  0  0  0  0
 35 41  1  0  0  0  0
 36 37  1  0  0  0  0
 36 65  1  0  0  0  0
 36 66  1  0  0  0  0
 37 38  1  0  0  0  0
 37 67  1  0  0  0  0
 37 68  1  0  0  0  0
 38 39  1  0  0  0  0
 38 40  1  0  0  0  0
 39 69  1  0  0  0  0
 39 70  1  0  0  0  0
 39 71  1  0  0  0  0
 40 41  1  0  0  0  0
 40 72  1  0  0  0  0
 40 73  1  0  0  0  0
 41 74  1  0  0  0  0
 41 75  1  0  0  0  0
M  END
$$$$
