CHEMBL4084937
 OpenBabel04072215383D

 47 52  0  0  0  0  0  0  0  0999 V2000
    2.5932    0.9624    0.3620 O   0  0  0  0  0  0  0  0  0  0  0  0
    2.0801   -0.0822   -0.0005 C   0  0  0  0  0  0  0  0  0  0  0  0
    0.8305   -0.5986    0.2646 N   0  0  0  0  0  0  0  0  0  0  0  0
   -0.0723    0.1013    1.0360 C   0  0  0  0  0  0  0  0  0  0  0  0
   -0.4350    1.4639    0.9398 C   0  0  0  0  0  0  0  0  0  0  0  0
   -1.3788    1.6382    1.9227 C   0  0  0  0  0  0  0  0  0  0  0  0
   -2.1392    2.9167    2.2185 C   0  0  0  0  0  0  0  0  0  0  0  0
   -2.4130    3.2753    3.6636 C   0  0  0  0  0  0  0  0  0  0  0  0
   -3.5311    2.7901    2.8077 C   0  0  0  0  0  0  0  0  0  0  0  0
   -1.5463    0.4599    2.5872 O   0  0  0  0  0  0  0  0  0  0  0  0
   -0.7798   -0.5215    1.9818 N   0  0  0  0  0  0  0  0  0  0  0  0
    2.8738   -1.0609   -0.6360 N   0  0  0  0  0  0  0  0  0  0  0  0
    4.1139   -1.4798   -0.1895 C   0  0  0  0  0  0  0  0  0  0  0  0
    4.5791   -2.4767   -1.0119 C   0  0  0  0  0  0  0  0  0  0  0  0
    3.6619   -2.6075   -2.0845 C   0  0  0  0  0  0  0  0  0  0  0  0
    3.6650   -3.3677   -3.2735 C   0  0  0  0  0  0  0  0  0  0  0  0
    2.6383   -3.2071   -4.2102 C   0  0  0  0  0  0  0  0  0  0  0  0
    2.7763   -3.9457   -5.3754 O   0  0  0  0  0  0  0  0  0  0  0  0
    2.1213   -3.4962   -6.5135 C   0  0  0  0  0  0  0  0  0  0  0  0
    2.1318   -2.1852   -6.8000 N   0  0  0  0  0  0  0  0  0  0  0  0
    1.3096   -1.7825   -7.7806 C   0  0  0  0  0  0  0  0  0  0  0  0
    0.4555   -2.5639   -8.4617 N   0  0  0  0  0  0  0  0  0  0  0  0
    0.5202   -3.8726   -8.1622 C   0  0  0  0  0  0  0  0  0  0  0  0
    1.4105   -4.4075   -7.2480 C   0  0  0  0  0  0  0  0  0  0  0  0
    1.4114   -5.8904   -7.1678 C   0  0  0  0  0  0  0  0  0  0  0  0
   -0.2908   -6.3552   -7.6309 S   0  0  0  0  0  0  0  0  0  0  0  0
   -0.5009   -4.8587   -8.6769 C   0  0  0  0  0  0  0  0  0  0  0  0
    1.5587   -2.3703   -3.9109 C   0  0  0  0  0  0  0  0  0  0  0  0
    1.5212   -1.6184   -2.7276 C   0  0  0  0  0  0  0  0  0  0  0  0
    2.5912   -1.7446   -1.8268 C   0  0  0  0  0  0  0  0  0  0  0  0
    0.7514   -1.6044    0.3599 H   0  0  0  0  0  0  0  0  0  0  0  0
   -0.0909    2.1977    0.2276 H   0  0  0  0  0  0  0  0  0  0  0  0
   -1.9538    3.7416    1.5390 H   0  0  0  0  0  0  0  0  0  0  0  0
   -2.3980    4.3257    3.9328 H   0  0  0  0  0  0  0  0  0  0  0  0
   -2.0435    2.6192    4.4436 H   0  0  0  0  0  0  0  0  0  0  0  0
   -4.2825    3.5068    2.4965 H   0  0  0  0  0  0  0  0  0  0  0  0
   -3.9300    1.8018    3.0130 H   0  0  0  0  0  0  0  0  0  0  0  0
    4.5278   -1.0562    0.7135 H   0  0  0  0  0  0  0  0  0  0  0  0
    5.5108   -3.0147   -0.8882 H   0  0  0  0  0  0  0  0  0  0  0  0
    4.4918   -4.0388   -3.4868 H   0  0  0  0  0  0  0  0  0  0  0  0
    1.3115   -0.7262   -8.0237 H   0  0  0  0  0  0  0  0  0  0  0  0
    1.7083   -6.2943   -6.1989 H   0  0  0  0  0  0  0  0  0  0  0  0
    2.0737   -6.2970   -7.9432 H   0  0  0  0  0  0  0  0  0  0  0  0
   -1.5146   -4.4643   -8.5646 H   0  0  0  0  0  0  0  0  0  0  0  0
   -0.3038   -5.1241   -9.7174 H   0  0  0  0  0  0  0  0  0  0  0  0
    0.7312   -2.2536   -4.6067 H   0  0  0  0  0  0  0  0  0  0  0  0
    0.7042   -0.9253   -2.5500 H   0  0  0  0  0  0  0  0  0  0  0  0
  1  2  2  0  0  0  0
  2  3  1  0  0  0  0
  2 12  1  0  0  0  0
  3  4  1  0  0  0  0
  3 31  1  0  0  0  0
  4  5  1  0  0  0  0
  4 11  2  0  0  0  0
  5  6  2  0  0  0  0
  5 32  1  0  0  0  0
  6  7  1  0  0  0  0
  6 10  1  0  0  0  0
  7  8  1  0  0  0  0
  7  9  1  0  0  0  0
  7 33  1  0  0  0  0
  8  9  1  0  0  0  0
  8 34  1  0  0  0  0
  8 35  1  0  0  0  0
  9 36  1  0  0  0  0
  9 37  1  0  0  0  0
 10 11  1  0  0  0  0
 12 13  1  0  0  0  0
 12 30  1  0  0  0  0
 13 14  2  0  0  0  0
 13 38  1  0  0  0  0
 14 15  1  0  0  0  0
 14 39  1  0  0  0  0
 15 16  1  0  0  0  0
 15 30  2  0  0  0  0
 16 17  2  0  0  0  0
 16 40  1  0  0  0  0
 17 18  1  0  0  0  0
 17 28  1  0  0  0  0
 18 19  1  0  0  0  0
 19 20  1  0  0  0  0
 19 24  2  0  0  0  0
 20 21  2  0  0  0  0
 21 22  1  0  0  0  0
 21 41  1  0  0  0  0
 22 23  2  0  0  0  0
 23 24  1  0  0  0  0
 23 27  1  0  0  0  0
 24 25  1  0  0  0  0
 25 26  1  0  0  0  0
 25 42  1  0  0  0  0
 25 43  1  0  0  0  0
 26 27  1  0  0  0  0
 27 44  1  0  0  0  0
 27 45  1  0  0  0  0
 28 29  2  0  0  0  0
 28 46  1  0  0  0  0
 29 30  1  0  0  0  0
 29 47  1  0  0  0  0
M  END
$$$$
