CHEMBL295816
 OpenBabel04072215363D

 46 49  0  0  0  0  0  0  0  0999 V2000
   -2.6353   -5.5050   -3.4417 C   0  0  0  0  0  0  0  0  0  0  0  0
   -2.6085   -4.6558   -2.2066 C   0  0  0  0  0  0  0  0  0  0  0  0
   -3.7802   -4.1619   -1.6280 C   0  0  0  0  0  0  0  0  0  0  0  0
   -3.7243   -3.3746   -0.4745 C   0  0  0  0  0  0  0  0  0  0  0  0
   -4.9714   -2.8433    0.1606 C   0  0  0  0  0  0  0  0  0  0  0  0
   -2.4738   -3.1034    0.1105 C   0  0  0  0  0  0  0  0  0  0  0  0
   -1.2911   -3.6298   -0.4196 C   0  0  0  0  0  0  0  0  0  0  0  0
   -0.0722   -3.3641    0.2493 N   0  0  0  0  0  0  0  0  0  0  0  0
    1.1402   -4.0845    0.1820 C   0  0  0  0  0  0  0  0  0  0  0  0
    2.0758   -3.8945    1.1977 C   0  0  0  0  0  0  0  0  0  0  0  0
    3.2915   -4.5850    1.1418 C   0  0  0  0  0  0  0  0  0  0  0  0
    4.2873   -4.3283    2.1197 N   0  0  0  0  0  0  0  0  0  0  0  0
    4.0308   -4.0670    3.4503 C   0  0  0  0  0  0  0  0  0  0  0  0
    5.2536   -4.0239    4.0670 C   0  0  0  0  0  0  0  0  0  0  0  0
    6.2582   -4.1705    3.1551 N   0  0  0  0  0  0  0  0  0  0  0  0
    5.6787   -4.2757    1.9666 C   0  0  0  0  0  0  0  0  0  0  0  0
    6.4283   -4.2727    0.6949 C   0  0  0  0  0  0  0  0  0  0  0  0
    7.7042   -4.8504    0.6466 C   0  0  0  0  0  0  0  0  0  0  0  0
    8.4100   -4.9276   -0.5580 C   0  0  0  0  0  0  0  0  0  0  0  0
    7.8436   -4.4392   -1.7336 C   0  0  0  0  0  0  0  0  0  0  0  0
    6.5990   -3.8204   -1.6957 C   0  0  0  0  0  0  0  0  0  0  0  0
    5.9194   -3.6996   -0.4822 C   0  0  0  0  0  0  0  0  0  0  0  0
    3.5301   -5.4803    0.1043 C   0  0  0  0  0  0  0  0  0  0  0  0
    2.5773   -5.5767   -0.8828 C   0  0  0  0  0  0  0  0  0  0  0  0
    1.4156   -4.8977   -0.8593 N   0  0  0  0  0  0  0  0  0  0  0  0
   -1.3772   -4.3645   -1.6058 C   0  0  0  0  0  0  0  0  0  0  0  0
   -3.6572   -5.6681   -3.7977 H   0  0  0  0  0  0  0  0  0  0  0  0
   -2.1919   -6.4844   -3.2318 H   0  0  0  0  0  0  0  0  0  0  0  0
   -2.0685   -5.0208   -4.2427 H   0  0  0  0  0  0  0  0  0  0  0  0
   -4.7410   -4.3909   -2.0814 H   0  0  0  0  0  0  0  0  0  0  0  0
   -5.8622   -3.1178   -0.4131 H   0  0  0  0  0  0  0  0  0  0  0  0
   -4.9312   -1.7510    0.2182 H   0  0  0  0  0  0  0  0  0  0  0  0
   -5.0821   -3.2538    1.1702 H   0  0  0  0  0  0  0  0  0  0  0  0
   -2.4435   -2.4935    1.0124 H   0  0  0  0  0  0  0  0  0  0  0  0
   -0.2372   -2.9889    1.1746 H   0  0  0  0  0  0  0  0  0  0  0  0
    1.8670   -3.1867    1.9910 H   0  0  0  0  0  0  0  0  0  0  0  0
    3.0298   -4.0213    3.8537 H   0  0  0  0  0  0  0  0  0  0  0  0
    5.4617   -3.8959    5.1217 H   0  0  0  0  0  0  0  0  0  0  0  0
    8.1541   -5.2482    1.5550 H   0  0  0  0  0  0  0  0  0  0  0  0
    9.3996   -5.3762   -0.5775 H   0  0  0  0  0  0  0  0  0  0  0  0
    8.3782   -4.5261   -2.6757 H   0  0  0  0  0  0  0  0  0  0  0  0
    6.1519   -3.4299   -2.6067 H   0  0  0  0  0  0  0  0  0  0  0  0
    4.9680   -3.1728   -0.4843 H   0  0  0  0  0  0  0  0  0  0  0  0
    4.4313   -6.0808    0.0336 H   0  0  0  0  0  0  0  0  0  0  0  0
    2.7251   -6.2103   -1.7526 H   0  0  0  0  0  0  0  0  0  0  0  0
   -0.4825   -4.7441   -2.0875 H   0  0  0  0  0  0  0  0  0  0  0  0
  1  2  1  0  0  0  0
  1 27  1  0  0  0  0
  1 28  1  0  0  0  0
  1 29  1  0  0  0  0
  2  3  1  0  0  0  0
  2 26  2  0  0  0  0
  3  4  2  0  0  0  0
  3 30  1  0  0  0  0
  4  5  1  0  0  0  0
  4  6  1  0  0  0  0
  5 31  1  0  0  0  0
  5 32  1  0  0  0  0
  5 33  1  0  0  0  0
  6  7  2  0  0  0  0
  6 34  1  0  0  0  0
  7  8  1  0  0  0  0
  7 26  1  0  0  0  0
  8  9  1  0  0  0  0
  8 35  1  0  0  0  0
  9 10  1  0  0  0  0
  9 25  2  0  0  0  0
 10 11  2  0  0  0  0
 10 36  1  0  0  0  0
 11 12  1  0  0  0  0
 11 23  1  0  0  0  0
 12 13  1  0  0  0  0
 12 16  1  0  0  0  0
 13 14  2  0  0  0  0
 13 37  1  0  0  0  0
 14 15  1  0  0  0  0
 14 38  1  0  0  0  0
 15 16  2  0  0  0  0
 16 17  1  0  0  0  0
 17 18  1  0  0  0  0
 17 22  2  0  0  0  0
 18 19  2  0  0  0  0
 18 39  1  0  0  0  0
 19 20  1  0  0  0  0
 19 40  1  0  0  0  0
 20 21  2  0  0  0  0
 20 41  1  0  0  0  0
 21 22  1  0  0  0  0
 21 42  1  0  0  0  0
 22 43  1  0  0  0  0
 23 24  2  0  0  0  0
 23 44  1  0  0  0  0
 24 25  1  0  0  0  0
 24 45  1  0  0  0  0
 26 46  1  0  0  0  0
M  END
$$$$
