CHEMBL4542816
 OpenBabel04072215383D

 71 75  0  0  0  0  0  0  0  0999 V2000
   -1.0985    1.4560   -9.3704 C   0  0  0  0  0  0  0  0  0  0  0  0
   -0.3105    2.2829   -8.5026 O   0  0  0  0  0  0  0  0  0  0  0  0
    0.4844    1.8527   -7.4847 C   0  0  0  0  0  0  0  0  0  0  0  0
    1.4993    2.6791   -7.1413 C   0  0  0  0  0  0  0  0  0  0  0  0
    2.2618    2.5541   -5.8742 C   0  0  0  0  0  0  0  0  0  0  0  0
    2.6785    1.5879   -4.9286 C   0  0  0  0  0  0  0  0  0  0  0  0
    4.0282    2.5465   -4.4163 C   0  0  0  0  0  0  0  0  0  0  0  0
    4.7330    2.4354   -3.1082 C   0  0  0  0  0  0  0  0  0  0  0  0
    4.3677    3.1970   -1.9000 C   0  0  0  0  0  0  0  0  0  0  0  0
    4.3853    2.8277   -0.4554 C   0  0  0  0  0  0  0  0  0  0  0  0
    3.3350    2.0164   -0.0388 C   0  0  0  0  0  0  0  0  0  0  0  0
    2.2724    2.0178   -0.9312 C   0  0  0  0  0  0  0  0  0  0  0  0
    2.3218    0.6644   -1.4031 O   0  0  0  0  0  0  0  0  0  0  0  0
    1.2566   -0.1751   -1.8345 C   0  0  0  0  0  0  0  0  0  0  0  0
    2.2218    3.2145   -1.8463 C   0  0  0  0  0  0  0  0  0  0  0  0
    3.3484    3.9340   -2.3417 C   0  0  0  0  0  0  0  0  0  0  0  0
    3.4839    4.6053   -3.6007 N   0  0  0  0  0  0  0  0  0  0  0  0
    4.0395    3.9023   -4.6360 C   0  0  0  0  0  0  0  0  0  0  0  0
    4.6064    4.4128   -5.8582 N   0  0  0  0  0  0  0  0  0  0  0  0
    4.5582    5.7520   -6.3200 C   0  0  0  0  0  0  0  0  0  0  0  0
    5.6587    6.3547   -6.9377 C   0  0  0  0  0  0  0  0  0  0  0  0
    5.6994    7.7388   -7.1379 C   0  0  0  0  0  0  0  0  0  0  0  0
    4.6012    8.5477   -6.8691 C   0  0  0  0  0  0  0  0  0  0  0  0
    4.6601    9.9566   -7.0168 N   0  0  0  0  0  0  0  0  0  0  0  0
    5.7884   10.6886   -7.3787 C   0  0  0  0  0  0  0  0  0  0  0  0
    6.8819   10.2254   -7.7066 O   0  0  0  0  0  0  0  0  0  0  0  0
    5.6347   12.2079   -7.4210 C   0  0  0  0  0  0  0  0  0  0  0  0
    4.7018   12.7539   -6.4271 N   0  0  0  0  0  0  0  0  0  0  0  0
    5.0687   12.4273   -5.0331 C   0  0  0  0  0  0  0  0  0  0  0  0
    3.9233   12.9321   -4.1285 C   0  0  0  0  0  0  0  0  0  0  0  0
    3.7939   14.4040   -4.1359 N   0  0  0  0  0  0  0  0  0  0  0  0
    4.9429   15.0053   -3.4582 C   0  0  0  0  0  0  0  0  0  0  0  0
    3.6845   14.8761   -5.5367 C   0  0  0  0  0  0  0  0  0  0  0  0
    4.6946   14.2410   -6.5276 C   0  0  0  0  0  0  0  0  0  0  0  0
    3.4267    7.9196   -6.4385 C   0  0  0  0  0  0  0  0  0  0  0  0
    3.4093    6.5338   -6.1762 C   0  0  0  0  0  0  0  0  0  0  0  0
    1.5653    0.8339   -5.3806 C   0  0  0  0  0  0  0  0  0  0  0  0
    0.4463    0.8913   -6.5233 C   0  0  0  0  0  0  0  0  0  0  0  0
   -1.1228    1.8920  -10.3920 H   0  0  0  0  0  0  0  0  0  0  0  0
   -2.1413    1.3942   -9.0388 H   0  0  0  0  0  0  0  0  0  0  0  0
   -0.7039    0.4539   -9.4950 H   0  0  0  0  0  0  0  0  0  0  0  0
    1.7241    3.5099   -7.7950 H   0  0  0  0  0  0  0  0  0  0  0  0
    2.0631    3.4919   -5.3145 H   0  0  0  0  0  0  0  0  0  0  0  0
    5.7510    2.9420   -3.2413 H   0  0  0  0  0  0  0  0  0  0  0  0
    4.3993    3.6414    0.3232 H   0  0  0  0  0  0  0  0  0  0  0  0
    3.2271    1.4976    0.9277 H   0  0  0  0  0  0  0  0  0  0  0  0
    1.4929   -0.5529   -2.8388 H   0  0  0  0  0  0  0  0  0  0  0  0
    0.2856    0.3048   -1.8336 H   0  0  0  0  0  0  0  0  0  0  0  0
    1.2038   -1.1076   -1.2386 H   0  0  0  0  0  0  0  0  0  0  0  0
    1.3762    3.4629   -2.4727 H   0  0  0  0  0  0  0  0  0  0  0  0
    5.5312    3.9985   -5.9925 H   0  0  0  0  0  0  0  0  0  0  0  0
    6.5364    5.8014   -7.2535 H   0  0  0  0  0  0  0  0  0  0  0  0
    6.6366    8.1523   -7.4898 H   0  0  0  0  0  0  0  0  0  0  0  0
    3.8391   10.4955   -6.7591 H   0  0  0  0  0  0  0  0  0  0  0  0
    5.2760   12.4518   -8.4278 H   0  0  0  0  0  0  0  0  0  0  0  0
    6.6350   12.6457   -7.3030 H   0  0  0  0  0  0  0  0  0  0  0  0
    6.0342   12.8764   -4.7633 H   0  0  0  0  0  0  0  0  0  0  0  0
    5.1889   11.3570   -4.8503 H   0  0  0  0  0  0  0  0  0  0  0  0
    4.0618   12.5634   -3.1061 H   0  0  0  0  0  0  0  0  0  0  0  0
    2.9739   12.4919   -4.4699 H   0  0  0  0  0  0  0  0  0  0  0  0
    5.0314   14.6037   -2.4424 H   0  0  0  0  0  0  0  0  0  0  0  0
    4.8129   16.0867   -3.3687 H   0  0  0  0  0  0  0  0  0  0  0  0
    5.8939   14.8271   -3.9700 H   0  0  0  0  0  0  0  0  0  0  0  0
    3.7670   15.9698   -5.5739 H   0  0  0  0  0  0  0  0  0  0  0  0
    2.6726   14.6439   -5.8948 H   0  0  0  0  0  0  0  0  0  0  0  0
    5.6989   14.6418   -6.3234 H   0  0  0  0  0  0  0  0  0  0  0  0
    4.4335   14.5574   -7.5449 H   0  0  0  0  0  0  0  0  0  0  0  0
    2.5211    8.4845   -6.2407 H   0  0  0  0  0  0  0  0  0  0  0  0
    2.5001    6.0668   -5.8070 H   0  0  0  0  0  0  0  0  0  0  0  0
    1.4662   -0.1523   -4.9049 H   0  0  0  0  0  0  0  0  0  0  0  0
   -0.3025    0.1131   -6.6027 H   0  0  0  0  0  0  0  0  0  0  0  0
  1  2  1  0  0  0  0
  1 39  1  0  0  0  0
  1 40  1  0  0  0  0
  1 41  1  0  0  0  0
  2  3  1  0  0  0  0
  3  4  1  0  0  0  0
  3 38  2  0  0  0  0
  4  5  2  0  0  0  0
  4 42  1  0  0  0  0
  5  6  1  0  0  0  0
  5 43  1  0  0  0  0
  6  7  1  0  0  0  0
  6 37  2  0  0  0  0
  7  8  1  0  0  0  0
  7 18  2  0  0  0  0
  8  9  2  0  0  0  0
  8 44  1  0  0  0  0
  9 10  1  0  0  0  0
  9 16  1  0  0  0  0
 10 11  2  0  0  0  0
 10 45  1  0  0  0  0
 11 12  1  0  0  0  0
 11 46  1  0  0  0  0
 12 13  1  0  0  0  0
 12 15  2  0  0  0  0
 13 14  1  0  0  0  0
 14 47  1  0  0  0  0
 14 48  1  0  0  0  0
 14 49  1  0  0  0  0
 15 16  1  0  0  0  0
 15 50  1  0  0  0  0
 16 17  2  0  0  0  0
 17 18  1  0  0  0  0
 18 19  1  0  0  0  0
 19 20  1  0  0  0  0
 19 51  1  0  0  0  0
 20 21  1  0  0  0  0
 20 36  2  0  0  0  0
 21 22  2  0  0  0  0
 21 52  1  0  0  0  0
 22 23  1  0  0  0  0
 22 53  1  0  0  0  0
 23 24  1  0  0  0  0
 23 35  2  0  0  0  0
 24 25  1  0  0  0  0
 24 54  1  0  0  0  0
 25 26  2  0  0  0  0
 25 27  1  0  0  0  0
 27 28  1  0  0  0  0
 27 55  1  0  0  0  0
 27 56  1  0  0  0  0
 28 29  1  0  0  0  0
 28 34  1  0  0  0  0
 29 30  1  0  0  0  0
 29 57  1  0  0  0  0
 29 58  1  0  0  0  0
 30 31  1  0  0  0  0
 30 59  1  0  0  0  0
 30 60  1  0  0  0  0
 31 32  1  0  0  0  0
 31 33  1  0  0  0  0
 32 61  1  0  0  0  0
 32 62  1  0  0  0  0
 32 63  1  0  0  0  0
 33 34  1  0  0  0  0
 33 64  1  0  0  0  0
 33 65  1  0  0  0  0
 34 66  1  0  0  0  0
 34 67  1  0  0  0  0
 35 36  1  0  0  0  0
 35 68  1  0  0  0  0
 36 69  1  0  0  0  0
 37 38  1  0  0  0  0
 37 70  1  0  0  0  0
 38 71  1  0  0  0  0
M  END
$$$$
