CHEMBL3963292
 OpenBabel04072215373D

 70 74  0  0  0  0  0  0  0  0999 V2000
    2.4643   -0.4106    0.9360 C   0  0  0  0  0  0  0  0  0  0  0  0
    0.9692   -0.2966    1.0085 C   0  0  0  0  0  0  0  0  0  0  0  0
    0.3914    0.9049    1.4282 C   0  0  0  0  0  0  0  0  0  0  0  0
   -0.9872    1.0236    1.5090 C   0  0  0  0  0  0  0  0  0  0  0  0
   -1.7985   -0.0598    1.1732 C   0  0  0  0  0  0  0  0  0  0  0  0
   -1.2556   -1.2739    0.7410 C   0  0  0  0  0  0  0  0  0  0  0  0
   -2.0549   -2.3981    0.3954 N   0  0  0  0  0  0  0  0  0  0  0  0
   -3.4347   -2.3799    0.3152 C   0  0  0  0  0  0  0  0  0  0  0  0
   -4.1216   -1.3668    0.4448 O   0  0  0  0  0  0  0  0  0  0  0  0
   -3.9959   -3.6345    0.1022 N   0  0  0  0  0  0  0  0  0  0  0  0
   -5.4220   -3.7438    0.0688 C   0  0  0  0  0  0  0  0  0  0  0  0
   -6.1254   -2.8011   -0.6774 C   0  0  0  0  0  0  0  0  0  0  0  0
   -7.5038   -2.7028   -0.5852 C   0  0  0  0  0  0  0  0  0  0  0  0
   -8.2770   -3.6600    0.0805 C   0  0  0  0  0  0  0  0  0  0  0  0
   -9.7658   -3.4971    0.0479 C   0  0  0  0  0  0  0  0  0  0  0  0
  -10.5368   -3.6460    1.2283 C   0  0  0  0  0  0  0  0  0  0  0  0
  -11.9287   -3.6018    1.2349 C   0  0  0  0  0  0  0  0  0  0  0  0
  -12.6380   -3.3097    0.0763 C   0  0  0  0  0  0  0  0  0  0  0  0
  -14.0111   -3.2721    0.2186 O   0  0  0  0  0  0  0  0  0  0  0  0
  -14.7821   -3.5582   -0.9476 C   0  0  0  0  0  0  0  0  0  0  0  0
  -16.1441   -4.1440   -0.5609 C   0  0  0  0  0  0  0  0  0  0  0  0
  -17.0349   -3.2726    0.3596 C   0  0  0  0  0  0  0  0  0  0  0  0
  -17.3398   -1.9063   -0.2699 C   0  0  0  0  0  0  0  0  0  0  0  0
  -18.3583   -4.0101    0.6206 C   0  0  0  0  0  0  0  0  0  0  0  0
  -16.3964   -3.0503    1.6619 N   0  0  0  0  0  0  0  0  0  0  0  0
  -11.8883   -2.9890   -1.0631 C   0  0  0  0  0  0  0  0  0  0  0  0
  -12.2708   -2.4897   -2.2762 N   0  0  0  0  0  0  0  0  0  0  0  0
  -11.2926   -2.3529   -3.1649 N   0  0  0  0  0  0  0  0  0  0  0  0
  -10.2085   -2.7264   -2.4969 C   0  0  0  0  0  0  0  0  0  0  0  0
   -9.0213   -2.6861   -3.1139 N   0  0  0  0  0  0  0  0  0  0  0  0
  -10.4843   -3.1016   -1.1328 C   0  0  0  0  0  0  0  0  0  0  0  0
   -7.5703   -4.6832    0.8140 C   0  0  0  0  0  0  0  0  0  0  0  0
   -8.2213   -5.6844    1.5888 C   0  0  0  0  0  0  0  0  0  0  0  0
   -7.5437   -6.5322    2.4671 C   0  0  0  0  0  0  0  0  0  0  0  0
   -6.1670   -6.4839    2.5370 C   0  0  0  0  0  0  0  0  0  0  0  0
   -5.4734   -5.6035    1.7073 C   0  0  0  0  0  0  0  0  0  0  0  0
   -6.1324   -4.6934    0.8444 C   0  0  0  0  0  0  0  0  0  0  0  0
    0.1409   -1.3844    0.6628 C   0  0  0  0  0  0  0  0  0  0  0  0
    2.9457    0.5242    1.2504 H   0  0  0  0  0  0  0  0  0  0  0  0
    2.7817   -0.6176   -0.0890 H   0  0  0  0  0  0  0  0  0  0  0  0
    2.8171   -1.2022    1.6023 H   0  0  0  0  0  0  0  0  0  0  0  0
    1.0104    1.7582    1.6969 H   0  0  0  0  0  0  0  0  0  0  0  0
   -1.4439    1.9564    1.8319 H   0  0  0  0  0  0  0  0  0  0  0  0
   -2.8649    0.1088    1.2800 H   0  0  0  0  0  0  0  0  0  0  0  0
   -1.5752   -3.2172    0.0551 H   0  0  0  0  0  0  0  0  0  0  0  0
   -3.4765   -4.4039    0.4935 H   0  0  0  0  0  0  0  0  0  0  0  0
   -5.6012   -2.0660   -1.2854 H   0  0  0  0  0  0  0  0  0  0  0  0
   -7.9683   -1.8364   -1.0529 H   0  0  0  0  0  0  0  0  0  0  0  0
  -10.0404   -3.8157    2.1832 H   0  0  0  0  0  0  0  0  0  0  0  0
  -12.4640   -3.7965    2.1615 H   0  0  0  0  0  0  0  0  0  0  0  0
  -14.2745   -4.2871   -1.5914 H   0  0  0  0  0  0  0  0  0  0  0  0
  -14.9306   -2.6305   -1.5071 H   0  0  0  0  0  0  0  0  0  0  0  0
  -15.9695   -5.1116   -0.0715 H   0  0  0  0  0  0  0  0  0  0  0  0
  -16.6899   -4.3586   -1.4896 H   0  0  0  0  0  0  0  0  0  0  0  0
  -17.8655   -2.0243   -1.2246 H   0  0  0  0  0  0  0  0  0  0  0  0
  -16.4316   -1.3243   -0.4584 H   0  0  0  0  0  0  0  0  0  0  0  0
  -17.9793   -1.3013    0.3838 H   0  0  0  0  0  0  0  0  0  0  0  0
  -18.9189   -4.1538   -0.3102 H   0  0  0  0  0  0  0  0  0  0  0  0
  -19.0010   -3.4480    1.3085 H   0  0  0  0  0  0  0  0  0  0  0  0
  -18.1862   -4.9998    1.0599 H   0  0  0  0  0  0  0  0  0  0  0  0
  -15.4770   -2.6228    1.5104 H   0  0  0  0  0  0  0  0  0  0  0  0
  -16.1845   -3.9495    2.0949 H   0  0  0  0  0  0  0  0  0  0  0  0
  -13.1979   -2.2093   -2.5665 H   0  0  0  0  0  0  0  0  0  0  0  0
   -9.0268   -2.4414   -4.0972 H   0  0  0  0  0  0  0  0  0  0  0  0
   -8.2581   -3.2901   -2.8383 H   0  0  0  0  0  0  0  0  0  0  0  0
   -9.3003   -5.8015    1.5535 H   0  0  0  0  0  0  0  0  0  0  0  0
   -8.1027   -7.2131    3.1044 H   0  0  0  0  0  0  0  0  0  0  0  0
   -5.6300   -7.1230    3.2318 H   0  0  0  0  0  0  0  0  0  0  0  0
   -4.3909   -5.6145    1.7955 H   0  0  0  0  0  0  0  0  0  0  0  0
    0.6002   -2.3131    0.3344 H   0  0  0  0  0  0  0  0  0  0  0  0
  1  2  1  0  0  0  0
  1 39  1  0  0  0  0
  1 40  1  0  0  0  0
  1 41  1  0  0  0  0
  2  3  1  0  0  0  0
  2 38  2  0  0  0  0
  3  4  2  0  0  0  0
  3 42  1  0  0  0  0
  4  5  1  0  0  0  0
  4 43  1  0  0  0  0
  5  6  2  0  0  0  0
  5 44  1  0  0  0  0
  6  7  1  0  0  0  0
  6 38  1  0  0  0  0
  7  8  1  0  0  0  0
  7 45  1  0  0  0  0
  8  9  2  0  0  0  0
  8 10  1  0  0  0  0
 10 11  1  0  0  0  0
 10 46  1  0  0  0  0
 11 12  1  0  0  0  0
 11 37  2  0  0  0  0
 12 13  2  0  0  0  0
 12 47  1  0  0  0  0
 13 14  1  0  0  0  0
 13 48  1  0  0  0  0
 14 15  1  0  0  0  0
 14 32  2  0  0  0  0
 15 16  1  0  0  0  0
 15 31  2  0  0  0  0
 16 17  2  0  0  0  0
 16 49  1  0  0  0  0
 17 18  1  0  0  0  0
 17 50  1  0  0  0  0
 18 19  1  0  0  0  0
 18 26  2  0  0  0  0
 19 20  1  0  0  0  0
 20 21  1  0  0  0  0
 20 51  1  0  0  0  0
 20 52  1  0  0  0  0
 21 22  1  0  0  0  0
 21 53  1  0  0  0  0
 21 54  1  0  0  0  0
 22 23  1  0  0  0  0
 22 24  1  0  0  0  0
 22 25  1  0  0  0  0
 23 55  1  0  0  0  0
 23 56  1  0  0  0  0
 23 57  1  0  0  0  0
 24 58  1  0  0  0  0
 24 59  1  0  0  0  0
 24 60  1  0  0  0  0
 25 61  1  0  0  0  0
 25 62  1  0  0  0  0
 26 27  1  0  0  0  0
 26 31  1  0  0  0  0
 27 28  1  0  0  0  0
 27 63  1  0  0  0  0
 28 29  2  0  0  0  0
 29 30  1  0  0  0  0
 29 31  1  0  0  0  0
 30 64  1  0  0  0  0
 30 65  1  0  0  0  0
 32 33  1  0  0  0  0
 32 37  1  0  0  0  0
 33 34  2  0  0  0  0
 33 66  1  0  0  0  0
 34 35  1  0  0  0  0
 34 67  1  0  0  0  0
 35 36  2  0  0  0  0
 35 68  1  0  0  0  0
 36 37  1  0  0  0  0
 36 69  1  0  0  0  0
 38 70  1  0  0  0  0
M  END
$$$$
