CHEMBL491871
 OpenBabel04072215383D

 45 48  0  0  0  0  0  0  0  0999 V2000
   -1.2575   -0.4406   -1.3494 F   0  0  0  0  0  0  0  0  0  0  0  0
   -0.7940    0.1015   -2.5133 C   0  0  0  0  0  0  0  0  0  0  0  0
   -1.8996    0.2907   -3.2848 F   0  0  0  0  0  0  0  0  0  0  0  0
   -0.3393    1.3397   -2.1770 F   0  0  0  0  0  0  0  0  0  0  0  0
    0.2552   -0.7473   -3.1801 C   0  0  0  0  0  0  0  0  0  0  0  0
    0.6778   -1.9446   -2.5740 C   0  0  0  0  0  0  0  0  0  0  0  0
    1.6504   -2.7479   -3.1738 C   0  0  0  0  0  0  0  0  0  0  0  0
    2.2279   -2.3627   -4.3889 C   0  0  0  0  0  0  0  0  0  0  0  0
    3.1934   -3.2002   -5.0029 N   0  0  0  0  0  0  0  0  0  0  0  0
    3.9161   -2.9879   -6.1543 C   0  0  0  0  0  0  0  0  0  0  0  0
    4.5611   -4.1775   -6.3881 C   0  0  0  0  0  0  0  0  0  0  0  0
    5.4228   -4.5312   -7.5097 C   0  0  0  0  0  0  0  0  0  0  0  0
    6.4920   -5.4039   -7.2123 C   0  0  0  0  0  0  0  0  0  0  0  0
    7.3690   -5.8436   -8.2001 C   0  0  0  0  0  0  0  0  0  0  0  0
    7.2012   -5.4036   -9.5011 C   0  0  0  0  0  0  0  0  0  0  0  0
    6.1507   -4.5360   -9.8149 C   0  0  0  0  0  0  0  0  0  0  0  0
    5.2108   -4.1132   -8.8516 C   0  0  0  0  0  0  0  0  0  0  0  0
    4.1791   -3.2145   -9.2093 N   0  0  0  0  0  0  0  0  0  0  0  0
    3.6278   -3.3009  -10.5596 C   0  0  0  0  0  0  0  0  0  0  0  0
    2.5280   -2.2809  -10.7225 C   0  0  0  0  0  0  0  0  0  0  0  0
    2.8180   -0.9122  -10.6913 C   0  0  0  0  0  0  0  0  0  0  0  0
    1.7838   -0.0082  -10.8713 C   0  0  0  0  0  0  0  0  0  0  0  0
    0.4998   -0.3705  -11.0758 N   0  0  0  0  0  0  0  0  0  0  0  0
    0.2391   -1.6943  -11.1038 C   0  0  0  0  0  0  0  0  0  0  0  0
    1.2041   -2.6750  -10.9339 C   0  0  0  0  0  0  0  0  0  0  0  0
    4.3108   -5.0289   -5.3444 N   0  0  0  0  0  0  0  0  0  0  0  0
    3.4960   -4.4185   -4.4974 N   0  0  0  0  0  0  0  0  0  0  0  0
    1.8167   -1.1707   -4.9998 C   0  0  0  0  0  0  0  0  0  0  0  0
    0.8342   -0.3753   -4.3970 C   0  0  0  0  0  0  0  0  0  0  0  0
    0.3696    1.0656   -5.2296 Cl  0  0  0  0  0  0  0  0  0  0  0  0
    0.2452   -2.2647   -1.6262 H   0  0  0  0  0  0  0  0  0  0  0  0
    1.9434   -3.6721   -2.6748 H   0  0  0  0  0  0  0  0  0  0  0  0
    3.9011   -2.0558   -6.6966 H   0  0  0  0  0  0  0  0  0  0  0  0
    6.6473   -5.7507   -6.1903 H   0  0  0  0  0  0  0  0  0  0  0  0
    8.1826   -6.5176   -7.9468 H   0  0  0  0  0  0  0  0  0  0  0  0
    7.8871   -5.7268  -10.2800 H   0  0  0  0  0  0  0  0  0  0  0  0
    6.0895   -4.1998  -10.8451 H   0  0  0  0  0  0  0  0  0  0  0  0
    3.4198   -3.2536   -8.5334 H   0  0  0  0  0  0  0  0  0  0  0  0
    3.2331   -4.3100  -10.7317 H   0  0  0  0  0  0  0  0  0  0  0  0
    4.3780   -3.0930  -11.3307 H   0  0  0  0  0  0  0  0  0  0  0  0
    3.8325   -0.5584  -10.5343 H   0  0  0  0  0  0  0  0  0  0  0  0
    1.9666    1.0625  -10.8590 H   0  0  0  0  0  0  0  0  0  0  0  0
   -0.8010   -1.9565  -11.2764 H   0  0  0  0  0  0  0  0  0  0  0  0
    0.9224   -3.7218  -10.9765 H   0  0  0  0  0  0  0  0  0  0  0  0
    2.2287   -0.8503   -5.9537 H   0  0  0  0  0  0  0  0  0  0  0  0
  1  2  1  0  0  0  0
  2  3  1  0  0  0  0
  2  4  1  0  0  0  0
  2  5  1  0  0  0  0
  5  6  1  0  0  0  0
  5 29  2  0  0  0  0
  6  7  2  0  0  0  0
  6 31  1  0  0  0  0
  7  8  1  0  0  0  0
  7 32  1  0  0  0  0
  8  9  1  0  0  0  0
  8 28  2  0  0  0  0
  9 10  1  0  0  0  0
  9 27  1  0  0  0  0
 10 11  2  0  0  0  0
 10 33  1  0  0  0  0
 11 12  1  0  0  0  0
 11 26  1  0  0  0  0
 12 13  1  0  0  0  0
 12 17  2  0  0  0  0
 13 14  2  0  0  0  0
 13 34  1  0  0  0  0
 14 15  1  0  0  0  0
 14 35  1  0  0  0  0
 15 16  2  0  0  0  0
 15 36  1  0  0  0  0
 16 17  1  0  0  0  0
 16 37  1  0  0  0  0
 17 18  1  0  0  0  0
 18 19  1  0  0  0  0
 18 38  1  0  0  0  0
 19 20  1  0  0  0  0
 19 39  1  0  0  0  0
 19 40  1  0  0  0  0
 20 21  1  0  0  0  0
 20 25  2  0  0  0  0
 21 22  2  0  0  0  0
 21 41  1  0  0  0  0
 22 23  1  0  0  0  0
 22 42  1  0  0  0  0
 23 24  2  0  0  0  0
 24 25  1  0  0  0  0
 24 43  1  0  0  0  0
 25 44  1  0  0  0  0
 26 27  2  0  0  0  0
 28 29  1  0  0  0  0
 28 45  1  0  0  0  0
 29 30  1  0  0  0  0
M  END
$$$$
