CHEMBL346200
 OpenBabel04072215363D

 36 38  0  0  0  0  0  0  0  0999 V2000
    3.5028    0.0191   -1.2896 C   0  0  0  0  0  0  0  0  0  0  0  0
    2.6018   -0.1722   -0.1951 O   0  0  0  0  0  0  0  0  0  0  0  0
    3.1481   -0.0258    1.0531 C   0  0  0  0  0  0  0  0  0  0  0  0
    4.2089    0.8706    1.2856 C   0  0  0  0  0  0  0  0  0  0  0  0
    4.8566    0.9622    2.5082 C   0  0  0  0  0  0  0  0  0  0  0  0
    5.9082    1.7806    2.6261 N   0  0  0  0  0  0  0  0  0  0  0  0
    6.5252    1.8000    3.8097 C   0  0  0  0  0  0  0  0  0  0  0  0
    6.1921    1.0739    4.8779 N   0  0  0  0  0  0  0  0  0  0  0  0
    5.1378    0.2455    4.7470 C   0  0  0  0  0  0  0  0  0  0  0  0
    4.7889   -0.5980    5.8372 N   0  0  0  0  0  0  0  0  0  0  0  0
    5.2993   -0.4471    7.1458 C   0  0  0  0  0  0  0  0  0  0  0  0
    5.2977    0.8029    7.7769 C   0  0  0  0  0  0  0  0  0  0  0  0
    5.8392    0.9530    9.0514 C   0  0  0  0  0  0  0  0  0  0  0  0
    6.3760   -0.1511    9.6992 C   0  0  0  0  0  0  0  0  0  0  0  0
    6.9208   -0.0002   10.9135 F   0  0  0  0  0  0  0  0  0  0  0  0
    6.3591   -1.4109    9.1139 C   0  0  0  0  0  0  0  0  0  0  0  0
    5.8130   -1.5493    7.8444 C   0  0  0  0  0  0  0  0  0  0  0  0
    5.8043   -2.7595    7.2634 F   0  0  0  0  0  0  0  0  0  0  0  0
    4.4044    0.1650    3.5599 C   0  0  0  0  0  0  0  0  0  0  0  0
    3.2634   -0.6469    3.3713 C   0  0  0  0  0  0  0  0  0  0  0  0
    2.6374   -0.7617    2.1266 C   0  0  0  0  0  0  0  0  0  0  0  0
    1.5935   -1.6397    2.1768 O   0  0  0  0  0  0  0  0  0  0  0  0
    0.9278   -2.0199    0.9864 C   0  0  0  0  0  0  0  0  0  0  0  0
    3.2389   -0.6940   -2.0760 H   0  0  0  0  0  0  0  0  0  0  0  0
    4.5530   -0.1675   -1.0340 H   0  0  0  0  0  0  0  0  0  0  0  0
    3.3843    1.0323   -1.6861 H   0  0  0  0  0  0  0  0  0  0  0  0
    4.5642    1.5230    0.4901 H   0  0  0  0  0  0  0  0  0  0  0  0
    7.3865    2.4526    3.9092 H   0  0  0  0  0  0  0  0  0  0  0  0
    4.8481   -1.5694    5.5357 H   0  0  0  0  0  0  0  0  0  0  0  0
    4.8820    1.6682    7.2660 H   0  0  0  0  0  0  0  0  0  0  0  0
    5.8581    1.9255    9.5298 H   0  0  0  0  0  0  0  0  0  0  0  0
    6.7740   -2.2671    9.6323 H   0  0  0  0  0  0  0  0  0  0  0  0
    2.8561   -1.2141    4.2066 H   0  0  0  0  0  0  0  0  0  0  0  0
    0.3109   -2.8911    1.2330 H   0  0  0  0  0  0  0  0  0  0  0  0
    1.6226   -2.3388    0.2057 H   0  0  0  0  0  0  0  0  0  0  0  0
    0.2577   -1.2256    0.6459 H   0  0  0  0  0  0  0  0  0  0  0  0
  1  2  1  0  0  0  0
  1 24  1  0  0  0  0
  1 25  1  0  0  0  0
  1 26  1  0  0  0  0
  2  3  1  0  0  0  0
  3  4  1  0  0  0  0
  3 21  2  0  0  0  0
  4  5  2  0  0  0  0
  4 27  1  0  0  0  0
  5  6  1  0  0  0  0
  5 19  1  0  0  0  0
  6  7  2  0  0  0  0
  7  8  1  0  0  0  0
  7 28  1  0  0  0  0
  8  9  2  0  0  0  0
  9 10  1  0  0  0  0
  9 19  1  0  0  0  0
 10 11  1  0  0  0  0
 10 29  1  0  0  0  0
 11 12  1  0  0  0  0
 11 17  2  0  0  0  0
 12 13  2  0  0  0  0
 12 30  1  0  0  0  0
 13 14  1  0  0  0  0
 13 31  1  0  0  0  0
 14 15  1  0  0  0  0
 14 16  2  0  0  0  0
 16 17  1  0  0  0  0
 16 32  1  0  0  0  0
 17 18  1  0  0  0  0
 19 20  2  0  0  0  0
 20 21  1  0  0  0  0
 20 33  1  0  0  0  0
 21 22  1  0  0  0  0
 22 23  1  0  0  0  0
 23 34  1  0  0  0  0
 23 35  1  0  0  0  0
 23 36  1  0  0  0  0
M  END
$$$$
