CHEMBL3958778
 OpenBabel04072215373D

 62 66  0  0  1  0  0  0  0  0999 V2000
    1.1157    0.5351   -0.3623 C   0  0  0  0  0  0  0  0  0  0  0  0
    2.5137    0.3172   -0.2200 O   0  0  0  0  0  0  0  0  0  0  0  0
    3.0692   -0.6702   -0.9836 C   0  0  0  0  0  0  0  0  0  0  0  0
    4.0704   -1.3958   -0.3216 C   0  0  0  0  0  0  0  0  0  0  0  0
    4.7772   -2.4440   -0.9695 C   0  0  0  0  0  0  0  0  0  0  0  0
    5.7930   -3.2427   -0.4215 C   0  0  0  0  0  0  0  0  0  0  0  0
    6.1692   -3.0533    0.9322 N   0  0  0  0  0  0  0  0  0  0  0  0
    7.3565   -3.5708    1.4885 C   0  0  0  0  0  0  0  0  0  0  0  0
    8.5797   -3.4188    0.8197 C   0  0  0  0  0  0  0  0  0  0  0  0
    9.7515   -3.9722    1.3322 C   0  0  0  0  0  0  0  0  0  0  0  0
    9.7146   -4.6845    2.5297 C   0  0  0  0  0  0  0  0  0  0  0  0
   11.1933   -5.3706    3.0990 Cl  0  0  0  0  0  0  0  0  0  0  0  0
    8.5045   -4.8248    3.2190 C   0  0  0  0  0  0  0  0  0  0  0  0
    8.3841   -5.6934    4.7085 Cl  0  0  0  0  0  0  0  0  0  0  0  0
    7.3314   -4.2620    2.7023 C   0  0  0  0  0  0  0  0  0  0  0  0
    6.4341   -4.1904   -1.1394 N   0  0  0  0  0  0  0  0  0  0  0  0
    6.0583   -4.3583   -2.3992 C   0  0  0  0  0  0  0  0  0  0  0  0
    5.0996   -3.6731   -3.0182 N   0  0  0  0  0  0  0  0  0  0  0  0
    4.4855   -2.7373   -2.2958 C   0  0  0  0  0  0  0  0  0  0  0  0
    3.5170   -2.0039   -2.9362 C   0  0  0  0  0  0  0  0  0  0  0  0
    2.8021   -0.9605   -2.3260 C   0  0  0  0  0  0  0  0  0  0  0  0
    1.8872   -0.2043   -3.0345 O   0  0  0  0  0  0  0  0  0  0  0  0
    1.7863   -0.6030   -4.4078 C   0  0  0  0  0  0  0  0  0  0  0  0
    0.8689    0.2526   -5.2520 C   0  0  3  0  0  0  0  0  0  0  0  0
   -0.5438    0.3605   -4.6581 C   0  0  0  0  0  0  0  0  0  0  0  0
   -1.4137    1.1711   -5.5738 N   0  0  0  0  0  0  0  0  0  0  0  0
   -1.1592    2.8681   -5.5678 S   0  0  0  0  0  0  0  0  0  0  0  0
    0.2325    3.1481   -5.2930 O   0  0  0  0  0  0  0  0  0  0  0  0
   -1.8128    3.4177   -6.7371 O   0  0  0  0  0  0  0  0  0  0  0  0
   -2.1062    3.4049   -4.1654 C   0  0  0  0  0  0  0  0  0  0  0  0
   -1.4765    4.0110   -3.0721 C   0  0  0  0  0  0  0  0  0  0  0  0
   -2.2594    4.5605   -2.0552 C   0  0  0  0  0  0  0  0  0  0  0  0
   -3.6481    4.4998   -2.1453 C   0  0  0  0  0  0  0  0  0  0  0  0
   -4.3953    5.0516   -1.1807 F   0  0  0  0  0  0  0  0  0  0  0  0
   -4.2753    3.8903   -3.2290 C   0  0  0  0  0  0  0  0  0  0  0  0
   -3.5014    3.3393   -4.2485 C   0  0  0  0  0  0  0  0  0  0  0  0
   -1.4146    0.5341   -6.9348 C   0  0  0  0  0  0  0  0  0  0  0  0
    0.0113    0.3814   -7.4699 C   0  0  0  0  0  0  0  0  0  0  0  0
    0.8219   -0.3716   -6.5580 O   0  0  0  0  0  0  0  0  0  0  0  0
    0.6933    0.6442    0.6429 H   0  0  0  0  0  0  0  0  0  0  0  0
    0.5817   -0.2871   -0.8485 H   0  0  0  0  0  0  0  0  0  0  0  0
    0.9492    1.4753   -0.8958 H   0  0  0  0  0  0  0  0  0  0  0  0
    4.3151   -1.1280    0.7045 H   0  0  0  0  0  0  0  0  0  0  0  0
    5.3562   -3.1731    1.5267 H   0  0  0  0  0  0  0  0  0  0  0  0
    8.6177   -2.8779   -0.1246 H   0  0  0  0  0  0  0  0  0  0  0  0
   10.6803   -3.8525    0.7806 H   0  0  0  0  0  0  0  0  0  0  0  0
    6.3938   -4.3943    3.2354 H   0  0  0  0  0  0  0  0  0  0  0  0
    6.5713   -5.1153   -2.9868 H   0  0  0  0  0  0  0  0  0  0  0  0
    3.3725   -2.2863   -3.9724 H   0  0  0  0  0  0  0  0  0  0  0  0
    1.4291   -1.6395   -4.4679 H   0  0  0  0  0  0  0  0  0  0  0  0
    2.7740   -0.5275   -4.8858 H   0  0  0  0  0  0  0  0  0  0  0  0
    1.3514    1.2236   -5.3596 H   0  0  0  0  0  0  0  0  0  0  0  0
   -0.5554    0.7705   -3.6453 H   0  0  0  0  0  0  0  0  0  0  0  0
   -0.9866   -0.6461   -4.5986 H   0  0  0  0  0  0  0  0  0  0  0  0
   -0.3930    4.0951   -3.0213 H   0  0  0  0  0  0  0  0  0  0  0  0
   -1.8004    5.0605   -1.2071 H   0  0  0  0  0  0  0  0  0  0  0  0
   -5.3581    3.8761   -3.2864 H   0  0  0  0  0  0  0  0  0  0  0  0
   -3.9811    2.8922   -5.1167 H   0  0  0  0  0  0  0  0  0  0  0  0
   -2.0445    1.0952   -7.6329 H   0  0  0  0  0  0  0  0  0  0  0  0
   -1.8729   -0.4582   -6.8311 H   0  0  0  0  0  0  0  0  0  0  0  0
    0.4879    1.3477   -7.6577 H   0  0  0  0  0  0  0  0  0  0  0  0
   -0.0065   -0.1727   -8.4148 H   0  0  0  0  0  0  0  0  0  0  0  0
  1  2  1  0  0  0  0
  1 40  1  0  0  0  0
  1 41  1  0  0  0  0
  1 42  1  0  0  0  0
  2  3  1  0  0  0  0
  3  4  1  0  0  0  0
  3 21  2  0  0  0  0
  4  5  2  0  0  0  0
  4 43  1  0  0  0  0
  5  6  1  0  0  0  0
  5 19  1  0  0  0  0
  6  7  1  0  0  0  0
  6 16  2  0  0  0  0
  7  8  1  0  0  0  0
  7 44  1  0  0  0  0
  8  9  1  0  0  0  0
  8 15  2  0  0  0  0
  9 10  2  0  0  0  0
  9 45  1  0  0  0  0
 10 11  1  0  0  0  0
 10 46  1  0  0  0  0
 11 12  1  0  0  0  0
 11 13  2  0  0  0  0
 13 14  1  0  0  0  0
 13 15  1  0  0  0  0
 15 47  1  0  0  0  0
 16 17  1  0  0  0  0
 17 18  2  0  0  0  0
 17 48  1  0  0  0  0
 18 19  1  0  0  0  0
 19 20  2  0  0  0  0
 20 21  1  0  0  0  0
 20 49  1  0  0  0  0
 21 22  1  0  0  0  0
 22 23  1  0  0  0  0
 23 24  1  0  0  0  0
 23 50  1  0  0  0  0
 23 51  1  0  0  0  0
 24 25  1  0  0  0  0
 24 39  1  0  0  0  0
 24 52  1  0  0  0  0
 25 26  1  0  0  0  0
 25 53  1  0  0  0  0
 25 54  1  0  0  0  0
 26 27  1  0  0  0  0
 26 37  1  0  0  0  0
 27 28  2  0  0  0  0
 27 29  2  0  0  0  0
 27 30  1  0  0  0  0
 30 31  1  0  0  0  0
 30 36  2  0  0  0  0
 31 32  2  0  0  0  0
 31 55  1  0  0  0  0
 32 33  1  0  0  0  0
 32 56  1  0  0  0  0
 33 34  1  0  0  0  0
 33 35  2  0  0  0  0
 35 36  1  0  0  0  0
 35 57  1  0  0  0  0
 36 58  1  0  0  0  0
 37 38  1  0  0  0  0
 37 59  1  0  0  0  0
 37 60  1  0  0  0  0
 38 39  1  0  0  0  0
 38 61  1  0  0  0  0
 38 62  1  0  0  0  0
M  END
$$$$
