CHEMBL3221268
 OpenBabel04072215363D

 69 70  0  0  0  0  0  0  0  0999 V2000
    9.4800   -0.6628   10.6171 C   0  0  0  0  0  0  0  0  0  0  0  0
   10.7986    0.0965   10.5338 C   0  0  0  0  0  0  0  0  0  0  0  0
   11.3884   -0.0991    9.3110 O   0  0  0  0  0  0  0  0  0  0  0  0
   11.8247   -1.3092    8.8873 C   0  0  0  0  0  0  0  0  0  0  0  0
   12.0838   -2.2050    9.7100 O   0  0  0  0  0  0  0  0  0  0  0  0
   11.9557   -1.5857    7.5666 N   0  0  0  0  0  0  0  0  0  0  0  0
   11.5864   -0.6458    6.5515 C   0  0  0  0  0  0  0  0  0  0  0  0
   10.2480   -0.5819    6.1334 C   0  0  0  0  0  0  0  0  0  0  0  0
    9.8752    0.3173    5.1443 C   0  0  0  0  0  0  0  0  0  0  0  0
   10.8183    1.1611    4.5599 C   0  0  0  0  0  0  0  0  0  0  0  0
   10.4360    2.1084    3.5772 N   0  0  0  0  0  0  0  0  0  0  0  0
   11.3098    2.4739    2.5223 C   0  0  0  0  0  0  0  0  0  0  0  0
   12.2681    1.5924    2.1149 N   0  0  0  0  0  0  0  0  0  0  0  0
   13.0833    1.8510    1.0767 C   0  0  0  0  0  0  0  0  0  0  0  0
   12.9775    3.0209    0.4125 N   0  0  0  0  0  0  0  0  0  0  0  0
   12.0435    3.9295    0.7713 C   0  0  0  0  0  0  0  0  0  0  0  0
   11.9874    5.1051    0.0772 C   0  0  0  0  0  0  0  0  0  0  0  0
   11.0569    6.1145    0.3750 C   0  0  0  0  0  0  0  0  0  0  0  0
   11.1361    7.2807   -0.3381 O   0  0  0  0  0  0  0  0  0  0  0  0
   12.3130    7.7138   -0.9728 C   0  0  0  0  0  0  0  0  0  0  0  0
   10.0946    5.8587    1.4282 C   0  0  0  0  0  0  0  0  0  0  0  0
    9.0565    6.6519    1.8248 O   0  0  0  0  0  0  0  0  0  0  0  0
    8.4544    7.7377    1.2288 C   0  0  0  0  0  0  0  0  0  0  0  0
    7.5522    7.4041    0.0231 C   0  0  0  0  0  0  0  0  0  0  0  0
    6.9358    8.6400   -0.5567 N   0  0  0  0  0  0  0  0  0  0  0  0
    7.8997    9.7270   -0.9155 C   0  0  0  0  0  0  0  0  0  0  0  0
    8.8474    9.4165   -2.0781 C   0  0  0  0  0  0  0  0  0  0  0  0
    6.0040    8.2861   -1.6540 C   0  0  0  0  0  0  0  0  0  0  0  0
    5.2858    9.4894   -2.2930 C   0  0  0  0  0  0  0  0  0  0  0  0
   10.2086    4.6676    2.1541 C   0  0  0  0  0  0  0  0  0  0  0  0
   11.1626    3.6906    1.8282 C   0  0  0  0  0  0  0  0  0  0  0  0
   12.1637    1.0740    4.9604 C   0  0  0  0  0  0  0  0  0  0  0  0
   12.5593    0.1807    5.9595 C   0  0  0  0  0  0  0  0  0  0  0  0
   14.0303    0.1452    6.3183 C   0  0  0  0  0  0  0  0  0  0  0  0
    1.4615   -2.4686   -1.2903 Cl  0  0  0  0  0  0  0  0  0  0  0  0
    8.9779   -0.4805   11.5832 H   0  0  0  0  0  0  0  0  0  0  0  0
    9.6624   -1.7541   10.5118 H   0  0  0  0  0  0  0  0  0  0  0  0
    8.8178   -0.3364    9.7843 H   0  0  0  0  0  0  0  0  0  0  0  0
   11.4796   -0.2231   11.3655 H   0  0  0  0  0  0  0  0  0  0  0  0
   10.5926    1.1869   10.6737 H   0  0  0  0  0  0  0  0  0  0  0  0
   12.2145   -2.5470    7.2718 H   0  0  0  0  0  0  0  0  0  0  0  0
    9.5046   -1.2374    6.5647 H   0  0  0  0  0  0  0  0  0  0  0  0
    8.8375    0.3670    4.8179 H   0  0  0  0  0  0  0  0  0  0  0  0
    9.4874    2.4987    3.6374 H   0  0  0  0  0  0  0  0  0  0  0  0
   13.8361    1.1326    0.7661 H   0  0  0  0  0  0  0  0  0  0  0  0
   12.7109    5.1959   -0.7113 H   0  0  0  0  0  0  0  0  0  0  0  0
   12.1417    8.6294   -1.5618 H   0  0  0  0  0  0  0  0  0  0  0  0
   12.7337    6.9853   -1.7057 H   0  0  0  0  0  0  0  0  0  0  0  0
   13.1012    7.9234   -0.2121 H   0  0  0  0  0  0  0  0  0  0  0  0
    9.2630    8.4106    0.9479 H   0  0  0  0  0  0  0  0  0  0  0  0
    7.7732    8.1994    1.9831 H   0  0  0  0  0  0  0  0  0  0  0  0
    6.7361    6.7229    0.3862 H   0  0  0  0  0  0  0  0  0  0  0  0
    8.1204    6.8413   -0.7446 H   0  0  0  0  0  0  0  0  0  0  0  0
    8.5258   10.0022   -0.0560 H   0  0  0  0  0  0  0  0  0  0  0  0
    7.3535   10.6688   -1.1170 H   0  0  0  0  0  0  0  0  0  0  0  0
    9.4074    8.4831   -1.8835 H   0  0  0  0  0  0  0  0  0  0  0  0
    9.5860   10.2440   -2.1527 H   0  0  0  0  0  0  0  0  0  0  0  0
    8.3183    9.3603   -3.0525 H   0  0  0  0  0  0  0  0  0  0  0  0
    5.2079    7.6213   -1.2483 H   0  0  0  0  0  0  0  0  0  0  0  0
    6.5516    7.7358   -2.4461 H   0  0  0  0  0  0  0  0  0  0  0  0
    4.6937   10.0541   -1.5416 H   0  0  0  0  0  0  0  0  0  0  0  0
    4.5975    9.1174   -3.0804 H   0  0  0  0  0  0  0  0  0  0  0  0
    5.9906   10.1816   -2.7991 H   0  0  0  0  0  0  0  0  0  0  0  0
    9.5094    4.5255    2.9828 H   0  0  0  0  0  0  0  0  0  0  0  0
   12.8962    1.7367    4.5229 H   0  0  0  0  0  0  0  0  0  0  0  0
   14.6214    0.8077    5.6526 H   0  0  0  0  0  0  0  0  0  0  0  0
   14.4156   -0.8854    6.1849 H   0  0  0  0  0  0  0  0  0  0  0  0
   14.2053    0.4855    7.3614 H   0  0  0  0  0  0  0  0  0  0  0  0
    1.6369   -1.1768   -1.7296 H   0  0  0  0  0  0  0  0  0  0  0  0
  1  2  1  0  0  0  0
  1 36  1  0  0  0  0
  1 37  1  0  0  0  0
  1 38  1  0  0  0  0
  2  3  1  0  0  0  0
  2 39  1  0  0  0  0
  2 40  1  0  0  0  0
  3  4  1  0  0  0  0
  4  5  2  0  0  0  0
  4  6  1  0  0  0  0
  6  7  1  0  0  0  0
  6 41  1  0  0  0  0
  7  8  1  0  0  0  0
  7 33  2  0  0  0  0
  8  9  2  0  0  0  0
  8 42  1  0  0  0  0
  9 10  1  0  0  0  0
  9 43  1  0  0  0  0
 10 11  1  0  0  0  0
 10 32  2  0  0  0  0
 11 12  1  0  0  0  0
 11 44  1  0  0  0  0
 12 13  1  0  0  0  0
 12 31  2  0  0  0  0
 13 14  2  0  0  0  0
 14 15  1  0  0  0  0
 14 45  1  0  0  0  0
 15 16  2  0  0  0  0
 16 17  1  0  0  0  0
 16 31  1  0  0  0  0
 17 18  2  0  0  0  0
 17 46  1  0  0  0  0
 18 19  1  0  0  0  0
 18 21  1  0  0  0  0
 19 20  1  0  0  0  0
 20 47  1  0  0  0  0
 20 48  1  0  0  0  0
 20 49  1  0  0  0  0
 21 22  1  0  0  0  0
 21 30  2  0  0  0  0
 22 23  1  0  0  0  0
 23 24  1  0  0  0  0
 23 50  1  0  0  0  0
 23 51  1  0  0  0  0
 24 25  1  0  0  0  0
 24 52  1  0  0  0  0
 24 53  1  0  0  0  0
 25 26  1  0  0  0  0
 25 28  1  0  0  0  0
 26 27  1  0  0  0  0
 26 54  1  0  0  0  0
 26 55  1  0  0  0  0
 27 56  1  0  0  0  0
 27 57  1  0  0  0  0
 27 58  1  0  0  0  0
 28 29  1  0  0  0  0
 28 59  1  0  0  0  0
 28 60  1  0  0  0  0
 29 61  1  0  0  0  0
 29 62  1  0  0  0  0
 29 63  1  0  0  0  0
 30 31  1  0  0  0  0
 30 64  1  0  0  0  0
 32 33  1  0  0  0  0
 32 65  1  0  0  0  0
 33 34  1  0  0  0  0
 34 66  1  0  0  0  0
 34 67  1  0  0  0  0
 34 68  1  0  0  0  0
 35 69  1  0  0  0  0
M  END
$$$$
