CHEMBL3671545
 OpenBabel04072215373D

 64 66  0  0  1  0  0  0  0  0999 V2000
    2.1433    0.7693    1.9557 C   0  0  0  0  0  0  0  0  0  0  0  0
    2.7567    0.1882    0.9181 C   0  0  0  0  0  0  0  0  0  0  0  0
    3.3962   -1.1463    1.0579 C   0  0  0  0  0  0  0  0  0  0  0  0
    3.1113   -1.9162    1.9644 O   0  0  0  0  0  0  0  0  0  0  0  0
    4.3521   -1.3518    0.0742 N   0  0  0  0  0  0  0  0  0  0  0  0
    5.1146   -2.5375    0.1162 C   0  0  0  0  0  0  0  0  0  0  0  0
    6.2471   -2.5487    0.9317 C   0  0  0  0  0  0  0  0  0  0  0  0
    6.9691   -3.7430    1.1389 C   0  0  0  0  0  0  0  0  0  0  0  0
    8.0371   -3.8834    2.0385 C   0  0  0  0  0  0  0  0  0  0  0  0
    8.4104   -2.7940    2.8698 N   0  0  0  0  0  0  0  0  0  0  0  0
    9.1585   -2.9409    4.0624 C   0  0  0  0  0  0  0  0  0  0  0  0
    8.8649   -3.9685    4.9706 C   0  0  0  0  0  0  0  0  0  0  0  0
    9.6674   -4.1854    6.0911 C   0  0  0  0  0  0  0  0  0  0  0  0
   10.7611   -3.3555    6.3241 C   0  0  0  0  0  0  0  0  0  0  0  0
   11.9001   -3.7100    7.7896 Br  0  0  0  0  0  0  0  0  0  0  0  0
   11.0324   -2.2850    5.4752 C   0  0  0  0  0  0  0  0  0  0  0  0
   10.2227   -2.0818    4.3598 C   0  0  0  0  0  0  0  0  0  0  0  0
   10.4974   -1.0607    3.5322 F   0  0  0  0  0  0  0  0  0  0  0  0
    8.6888   -5.0498    2.1922 N   0  0  0  0  0  0  0  0  0  0  0  0
    8.2606   -6.0843    1.4692 C   0  0  0  0  0  0  0  0  0  0  0  0
    7.2327   -6.0740    0.6176 N   0  0  0  0  0  0  0  0  0  0  0  0
    6.5858   -4.9137    0.4695 C   0  0  0  0  0  0  0  0  0  0  0  0
    5.4784   -4.8703   -0.3711 C   0  0  0  0  0  0  0  0  0  0  0  0
    4.7430   -3.6985   -0.5765 C   0  0  0  0  0  0  0  0  0  0  0  0
    3.7097   -3.8292   -1.4754 O   0  0  0  0  0  0  0  0  0  0  0  0
    3.4392   -2.6670   -2.2613 C   0  0  0  0  0  0  0  0  0  0  0  0
    2.9182   -3.0496   -3.6485 C   0  0  0  0  0  0  0  0  0  0  0  0
    2.7422   -1.8742   -4.4938 N   0  0  0  0  0  0  0  0  0  0  0  0
    3.8244   -1.2586   -5.0865 C   0  0  0  0  0  0  0  0  0  0  0  0
    4.9714   -1.6814   -4.9740 O   0  0  0  0  0  0  0  0  0  0  0  0
    3.5001    0.0299   -5.8226 C   0  0  0  0  0  0  0  0  0  0  0  0
    4.3439    0.1745   -7.1131 C   0  0  3  0  0  0  0  0  0  0  0  0
    3.9337   -0.9617   -8.0750 C   0  0  0  0  0  0  0  0  0  0  0  0
    4.1684    1.5063   -7.7711 N   0  0  0  0  0  0  0  0  0  0  0  0
    4.5622    2.6192   -6.8971 C   0  0  0  0  0  0  0  0  0  0  0  0
    4.9562    1.6079   -9.0110 C   0  0  0  0  0  0  0  0  0  0  0  0
    1.6396    1.7230    1.8415 H   0  0  0  0  0  0  0  0  0  0  0  0
    2.1214    0.3027    2.9378 H   0  0  0  0  0  0  0  0  0  0  0  0
    2.7601    0.6504   -0.0608 H   0  0  0  0  0  0  0  0  0  0  0  0
    4.8684   -0.5115   -0.1433 H   0  0  0  0  0  0  0  0  0  0  0  0
    6.5241   -1.6452    1.4677 H   0  0  0  0  0  0  0  0  0  0  0  0
    8.7237   -2.0016    2.3159 H   0  0  0  0  0  0  0  0  0  0  0  0
    8.0195   -4.6291    4.7877 H   0  0  0  0  0  0  0  0  0  0  0  0
    9.4396   -5.0161    6.7531 H   0  0  0  0  0  0  0  0  0  0  0  0
   11.8738   -1.6238    5.6514 H   0  0  0  0  0  0  0  0  0  0  0  0
    8.7901   -7.0223    1.5954 H   0  0  0  0  0  0  0  0  0  0  0  0
    5.1768   -5.7842   -0.8787 H   0  0  0  0  0  0  0  0  0  0  0  0
    4.3400   -2.0572   -2.3946 H   0  0  0  0  0  0  0  0  0  0  0  0
    2.6689   -2.0737   -1.7555 H   0  0  0  0  0  0  0  0  0  0  0  0
    1.9529   -3.5614   -3.5727 H   0  0  0  0  0  0  0  0  0  0  0  0
    3.6151   -3.7413   -4.1358 H   0  0  0  0  0  0  0  0  0  0  0  0
    1.8251   -1.4496   -4.5535 H   0  0  0  0  0  0  0  0  0  0  0  0
    3.7286    0.8249   -5.1043 H   0  0  0  0  0  0  0  0  0  0  0  0
    2.4303    0.0883   -6.0519 H   0  0  0  0  0  0  0  0  0  0  0  0
    5.4050    0.0395   -6.8629 H   0  0  0  0  0  0  0  0  0  0  0  0
    2.9189   -0.8051   -8.4581 H   0  0  0  0  0  0  0  0  0  0  0  0
    3.9532   -1.9389   -7.5824 H   0  0  0  0  0  0  0  0  0  0  0  0
    4.6174   -1.0423   -8.9252 H   0  0  0  0  0  0  0  0  0  0  0  0
    3.8903    2.7150   -6.0400 H   0  0  0  0  0  0  0  0  0  0  0  0
    4.4827    3.5751   -7.4301 H   0  0  0  0  0  0  0  0  0  0  0  0
    5.5916    2.5171   -6.5362 H   0  0  0  0  0  0  0  0  0  0  0  0
    4.5873    0.9240   -9.7808 H   0  0  0  0  0  0  0  0  0  0  0  0
    6.0203    1.4083   -8.8382 H   0  0  0  0  0  0  0  0  0  0  0  0
    4.8647    2.6085   -9.4504 H   0  0  0  0  0  0  0  0  0  0  0  0
  1  2  2  0  0  0  0
  1 37  1  0  0  0  0
  1 38  1  0  0  0  0
  2  3  1  0  0  0  0
  2 39  1  0  0  0  0
  3  4  2  0  0  0  0
  3  5  1  0  0  0  0
  5  6  1  0  0  0  0
  5 40  1  0  0  0  0
  6  7  1  0  0  0  0
  6 24  2  0  0  0  0
  7  8  2  0  0  0  0
  7 41  1  0  0  0  0
  8  9  1  0  0  0  0
  8 22  1  0  0  0  0
  9 10  1  0  0  0  0
  9 19  2  0  0  0  0
 10 11  1  0  0  0  0
 10 42  1  0  0  0  0
 11 12  1  0  0  0  0
 11 17  2  0  0  0  0
 12 13  2  0  0  0  0
 12 43  1  0  0  0  0
 13 14  1  0  0  0  0
 13 44  1  0  0  0  0
 14 15  1  0  0  0  0
 14 16  2  0  0  0  0
 16 17  1  0  0  0  0
 16 45  1  0  0  0  0
 17 18  1  0  0  0  0
 19 20  1  0  0  0  0
 20 21  2  0  0  0  0
 20 46  1  0  0  0  0
 21 22  1  0  0  0  0
 22 23  2  0  0  0  0
 23 24  1  0  0  0  0
 23 47  1  0  0  0  0
 24 25  1  0  0  0  0
 25 26  1  0  0  0  0
 26 27  1  0  0  0  0
 26 48  1  0  0  0  0
 26 49  1  0  0  0  0
 27 28  1  0  0  0  0
 27 50  1  0  0  0  0
 27 51  1  0  0  0  0
 28 29  1  0  0  0  0
 28 52  1  0  0  0  0
 29 30  2  0  0  0  0
 29 31  1  0  0  0  0
 31 32  1  0  0  0  0
 31 53  1  0  0  0  0
 31 54  1  0  0  0  0
 32 33  1  0  0  0  0
 32 34  1  0  0  0  0
 32 55  1  0  0  0  0
 33 56  1  0  0  0  0
 33 57  1  0  0  0  0
 33 58  1  0  0  0  0
 34 35  1  0  0  0  0
 34 36  1  0  0  0  0
 35 59  1  0  0  0  0
 35 60  1  0  0  0  0
 35 61  1  0  0  0  0
 36 62  1  0  0  0  0
 36 63  1  0  0  0  0
 36 64  1  0  0  0  0
M  END
$$$$
