CHEMBL443921
 OpenBabel04072215383D

 41 44  0  0  1  0  0  0  0  0999 V2000
    0.9781    0.4374    0.4067 O   0  0  0  0  0  0  0  0  0  0  0  0
    2.1185    0.1236    0.0531 C   0  0  0  0  0  0  0  0  0  0  0  0
    2.6797   -1.1367    0.2161 N   0  0  0  0  0  0  0  0  0  0  0  0
    2.0446   -2.2822    0.6329 C   0  0  0  0  0  0  0  0  0  0  0  0
    0.7001   -2.4132    0.6771 C   0  0  0  0  0  0  0  0  0  0  0  0
    0.1377   -3.7592    0.9584 C   0  0  3  0  0  0  0  0  0  0  0  0
   -1.1892   -4.0567    1.5827 C   0  0  0  0  0  0  0  0  0  0  0  0
   -1.2112   -5.2100    2.1870 N   0  0  0  0  0  0  0  0  0  0  0  0
    0.1103   -5.6501    2.2102 N   0  0  0  0  0  0  0  0  0  0  0  0
    0.9604   -4.4768    2.0230 C   0  0  3  0  0  0  0  0  0  0  0  0
    2.3932   -4.5216    1.6086 C   0  0  0  0  0  0  0  0  0  0  0  0
    2.8926   -3.4431    0.9632 C   0  0  0  0  0  0  0  0  0  0  0  0
    3.0201    1.1190   -0.5460 C   0  0  0  0  0  0  0  0  0  0  0  0
    4.1817    0.7383   -1.1022 N   0  0  0  0  0  0  0  0  0  0  0  0
    4.9294    2.0732   -1.7414 S   0  0  0  0  0  0  0  0  0  0  0  0
    3.7572    3.2099   -1.2367 C   0  0  0  0  0  0  0  0  0  0  0  0
    2.7523    2.5420   -0.5734 C   0  0  0  0  0  0  0  0  0  0  0  0
    1.6230    3.1088   -0.0580 N   0  0  0  0  0  0  0  0  0  0  0  0
    1.5798    4.4136    0.5770 C   0  0  0  0  0  0  0  0  0  0  0  0
    1.3422    4.3566    2.0743 C   0  0  0  0  0  0  0  0  0  0  0  0
    1.8656    5.3803    2.8782 C   0  0  0  0  0  0  0  0  0  0  0  0
    1.5797    5.3944    4.2363 C   0  0  0  0  0  0  0  0  0  0  0  0
    0.8149    4.4715    4.8497 N   0  0  0  0  0  0  0  0  0  0  0  0
    0.3124    3.4941    4.0679 C   0  0  0  0  0  0  0  0  0  0  0  0
    0.5344    3.3992    2.7006 C   0  0  0  0  0  0  0  0  0  0  0  0
    3.6738   -1.1808    0.0060 H   0  0  0  0  0  0  0  0  0  0  0  0
    0.0120   -1.6304    0.3814 H   0  0  0  0  0  0  0  0  0  0  0  0
    0.1223   -4.2952   -0.0035 H   0  0  0  0  0  0  0  0  0  0  0  0
   -2.0676   -3.4178    1.4211 H   0  0  0  0  0  0  0  0  0  0  0  0
    0.2524   -6.3193    1.4478 H   0  0  0  0  0  0  0  0  0  0  0  0
    0.9377   -3.9363    2.9839 H   0  0  0  0  0  0  0  0  0  0  0  0
    3.0272   -5.3389    1.9342 H   0  0  0  0  0  0  0  0  0  0  0  0
    3.9532   -3.3970    0.7336 H   0  0  0  0  0  0  0  0  0  0  0  0
    3.8487    4.2579   -1.4715 H   0  0  0  0  0  0  0  0  0  0  0  0
    0.8937    2.4663    0.2657 H   0  0  0  0  0  0  0  0  0  0  0  0
    0.7633    4.9900    0.1289 H   0  0  0  0  0  0  0  0  0  0  0  0
    2.5059    4.9686    0.3867 H   0  0  0  0  0  0  0  0  0  0  0  0
    2.4773    6.1710    2.4566 H   0  0  0  0  0  0  0  0  0  0  0  0
    1.9650    6.1794    4.8810 H   0  0  0  0  0  0  0  0  0  0  0  0
   -0.3091    2.7658    4.5846 H   0  0  0  0  0  0  0  0  0  0  0  0
    0.0664    2.5864    2.1564 H   0  0  0  0  0  0  0  0  0  0  0  0
  1  2  2  0  0  0  0
  2  3  1  0  0  0  0
  2 13  1  0  0  0  0
  3  4  1  0  0  0  0
  3 26  1  0  0  0  0
  4  5  2  0  0  0  0
  4 12  1  0  0  0  0
  5  6  1  0  0  0  0
  5 27  1  0  0  0  0
  6  7  1  0  0  0  0
  6 10  1  0  0  0  0
  6 28  1  0  0  0  0
  7  8  2  0  0  0  0
  7 29  1  0  0  0  0
  8  9  1  0  0  0  0
  9 10  1  0  0  0  0
  9 30  1  0  0  0  0
 10 11  1  0  0  0  0
 10 31  1  0  0  0  0
 11 12  2  0  0  0  0
 11 32  1  0  0  0  0
 12 33  1  0  0  0  0
 13 14  2  0  0  0  0
 13 17  1  0  0  0  0
 14 15  1  0  0  0  0
 15 16  1  0  0  0  0
 16 17  2  0  0  0  0
 16 34  1  0  0  0  0
 17 18  1  0  0  0  0
 18 19  1  0  0  0  0
 18 35  1  0  0  0  0
 19 20  1  0  0  0  0
 19 36  1  0  0  0  0
 19 37  1  0  0  0  0
 20 21  1  0  0  0  0
 20 25  2  0  0  0  0
 21 22  2  0  0  0  0
 21 38  1  0  0  0  0
 22 23  1  0  0  0  0
 22 39  1  0  0  0  0
 23 24  2  0  0  0  0
 24 25  1  0  0  0  0
 24 40  1  0  0  0  0
 25 41  1  0  0  0  0
M  END
$$$$
