CHEMBL3754257
 OpenBabel04072215373D

 66 70  0  0  0  0  0  0  0  0999 V2000
   14.8905  -13.7104   -2.7376 C   0  0  0  0  0  0  0  0  0  0  0  0
   15.4952  -12.4740   -3.3779 C   0  0  0  0  0  0  0  0  0  0  0  0
   14.4228  -11.5655   -3.6520 O   0  0  0  0  0  0  0  0  0  0  0  0
   13.8411  -11.6716   -4.8707 C   0  0  0  0  0  0  0  0  0  0  0  0
   14.2979  -12.2336   -5.8555 O   0  0  0  0  0  0  0  0  0  0  0  0
   12.4943  -11.0555   -4.8217 C   0  0  0  0  0  0  0  0  0  0  0  0
   11.8116  -10.9308   -3.6097 C   0  0  0  0  0  0  0  0  0  0  0  0
   10.5178  -10.4092   -3.5795 C   0  0  0  0  0  0  0  0  0  0  0  0
    9.8799  -10.0013   -4.7564 C   0  0  0  0  0  0  0  0  0  0  0  0
    8.5708   -9.4762   -4.7660 N   0  0  0  0  0  0  0  0  0  0  0  0
    7.8371   -9.0941   -3.6587 C   0  0  0  0  0  0  0  0  0  0  0  0
    8.2500   -9.0475   -2.5011 O   0  0  0  0  0  0  0  0  0  0  0  0
    6.4226   -8.6006   -3.9577 C   0  0  0  0  0  0  0  0  0  0  0  0
    5.7496   -9.3190   -5.0666 N   0  0  0  0  0  0  0  0  0  0  0  0
    4.4250   -8.6981   -5.3183 C   0  0  0  0  0  0  0  0  0  0  0  0
    3.4142   -8.8159   -4.1562 C   0  0  0  0  0  0  0  0  0  0  0  0
    3.2549  -10.1907   -3.6751 N   0  0  0  0  0  0  0  0  0  0  0  0
    2.0011  -10.7347   -3.3896 C   0  0  0  0  0  0  0  0  0  0  0  0
    1.8095  -12.0389   -3.6734 N   0  0  0  0  0  0  0  0  0  0  0  0
    0.5583  -12.6282   -3.6187 N   0  0  0  0  0  0  0  0  0  0  0  0
   -0.5400  -11.9100   -3.2988 C   0  0  0  0  0  0  0  0  0  0  0  0
   -1.8116  -12.6845   -3.3802 C   0  0  0  0  0  0  0  0  0  0  0  0
   -1.8634  -14.0315   -2.9668 C   0  0  0  0  0  0  0  0  0  0  0  0
   -3.0499  -14.7757   -3.0213 C   0  0  0  0  0  0  0  0  0  0  0  0
   -4.2257  -14.1851   -3.4733 C   0  0  0  0  0  0  0  0  0  0  0  0
   -4.2038  -12.8660   -3.9095 C   0  0  0  0  0  0  0  0  0  0  0  0
   -3.0051  -12.1429   -3.8968 C   0  0  0  0  0  0  0  0  0  0  0  0
   -0.4077  -10.5559   -2.9105 C   0  0  0  0  0  0  0  0  0  0  0  0
   -1.4976   -9.7305   -2.5093 C   0  0  0  0  0  0  0  0  0  0  0  0
   -1.3425   -8.3937   -2.1472 C   0  0  0  0  0  0  0  0  0  0  0  0
   -0.0727   -7.8712   -2.0400 C   0  0  0  0  0  0  0  0  0  0  0  0
    1.0200   -8.6724   -2.3618 C   0  0  0  0  0  0  0  0  0  0  0  0
    0.8966   -9.9825   -2.9012 C   0  0  0  0  0  0  0  0  0  0  0  0
    4.4506  -11.0491   -3.6211 C   0  0  0  0  0  0  0  0  0  0  0  0
    5.4789  -10.7456   -4.7477 C   0  0  0  0  0  0  0  0  0  0  0  0
   10.5587  -10.1465   -5.9729 C   0  0  0  0  0  0  0  0  0  0  0  0
   11.8602  -10.6689   -6.0079 C   0  0  0  0  0  0  0  0  0  0  0  0
   15.6598  -14.4365   -2.4674 H   0  0  0  0  0  0  0  0  0  0  0  0
   14.1746  -14.1854   -3.4173 H   0  0  0  0  0  0  0  0  0  0  0  0
   14.3285  -13.4350   -1.8375 H   0  0  0  0  0  0  0  0  0  0  0  0
   16.0697  -12.7229   -4.2766 H   0  0  0  0  0  0  0  0  0  0  0  0
   16.1741  -11.9812   -2.6746 H   0  0  0  0  0  0  0  0  0  0  0  0
   12.2606  -11.2580   -2.6740 H   0  0  0  0  0  0  0  0  0  0  0  0
   10.0270  -10.3646   -2.6145 H   0  0  0  0  0  0  0  0  0  0  0  0
    8.1078   -9.3446   -5.6633 H   0  0  0  0  0  0  0  0  0  0  0  0
    6.5204   -7.5375   -4.2134 H   0  0  0  0  0  0  0  0  0  0  0  0
    5.8611   -8.6714   -3.0204 H   0  0  0  0  0  0  0  0  0  0  0  0
    3.9862   -9.1636   -6.2105 H   0  0  0  0  0  0  0  0  0  0  0  0
    4.5547   -7.6384   -5.5725 H   0  0  0  0  0  0  0  0  0  0  0  0
    2.4701   -8.3996   -4.5219 H   0  0  0  0  0  0  0  0  0  0  0  0
    3.7562   -8.1866   -3.3254 H   0  0  0  0  0  0  0  0  0  0  0  0
   -0.9628  -14.5226   -2.5992 H   0  0  0  0  0  0  0  0  0  0  0  0
   -3.0528  -15.8173   -2.7093 H   0  0  0  0  0  0  0  0  0  0  0  0
   -5.1505  -14.7548   -3.5009 H   0  0  0  0  0  0  0  0  0  0  0  0
   -5.1157  -12.3983   -4.2724 H   0  0  0  0  0  0  0  0  0  0  0  0
   -3.0231  -11.1365   -4.3084 H   0  0  0  0  0  0  0  0  0  0  0  0
   -2.5103  -10.1190   -2.4609 H   0  0  0  0  0  0  0  0  0  0  0  0
   -2.2108   -7.7856   -1.9098 H   0  0  0  0  0  0  0  0  0  0  0  0
    0.0781   -6.8530   -1.6924 H   0  0  0  0  0  0  0  0  0  0  0  0
    2.0016   -8.2548   -2.1621 H   0  0  0  0  0  0  0  0  0  0  0  0
    4.2076  -12.1160   -3.6890 H   0  0  0  0  0  0  0  0  0  0  0  0
    4.9362  -10.9008   -2.6491 H   0  0  0  0  0  0  0  0  0  0  0  0
    5.1106  -11.2103   -5.6730 H   0  0  0  0  0  0  0  0  0  0  0  0
    6.4179  -11.2677   -4.5296 H   0  0  0  0  0  0  0  0  0  0  0  0
   10.0898   -9.8506   -6.9086 H   0  0  0  0  0  0  0  0  0  0  0  0
   12.3756  -10.7787   -6.9600 H   0  0  0  0  0  0  0  0  0  0  0  0
  1  2  1  0  0  0  0
  1 38  1  0  0  0  0
  1 39  1  0  0  0  0
  1 40  1  0  0  0  0
  2  3  1  0  0  0  0
  2 41  1  0  0  0  0
  2 42  1  0  0  0  0
  3  4  1  0  0  0  0
  4  5  2  0  0  0  0
  4  6  1  0  0  0  0
  6  7  1  0  0  0  0
  6 37  2  0  0  0  0
  7  8  2  0  0  0  0
  7 43  1  0  0  0  0
  8  9  1  0  0  0  0
  8 44  1  0  0  0  0
  9 10  1  0  0  0  0
  9 36  2  0  0  0  0
 10 11  1  0  0  0  0
 10 45  1  0  0  0  0
 11 12  2  0  0  0  0
 11 13  1  0  0  0  0
 13 14  1  0  0  0  0
 13 46  1  0  0  0  0
 13 47  1  0  0  0  0
 14 15  1  0  0  0  0
 14 35  1  0  0  0  0
 15 16  1  0  0  0  0
 15 48  1  0  0  0  0
 15 49  1  0  0  0  0
 16 17  1  0  0  0  0
 16 50  1  0  0  0  0
 16 51  1  0  0  0  0
 17 18  1  0  0  0  0
 17 34  1  0  0  0  0
 18 19  1  0  0  0  0
 18 33  2  0  0  0  0
 19 20  2  0  0  0  0
 20 21  1  0  0  0  0
 21 22  1  0  0  0  0
 21 28  2  0  0  0  0
 22 23  1  0  0  0  0
 22 27  2  0  0  0  0
 23 24  2  0  0  0  0
 23 52  1  0  0  0  0
 24 25  1  0  0  0  0
 24 53  1  0  0  0  0
 25 26  2  0  0  0  0
 25 54  1  0  0  0  0
 26 27  1  0  0  0  0
 26 55  1  0  0  0  0
 27 56  1  0  0  0  0
 28 29  1  0  0  0  0
 28 33  1  0  0  0  0
 29 30  2  0  0  0  0
 29 57  1  0  0  0  0
 30 31  1  0  0  0  0
 30 58  1  0  0  0  0
 31 32  2  0  0  0  0
 31 59  1  0  0  0  0
 32 33  1  0  0  0  0
 32 60  1  0  0  0  0
 34 35  1  0  0  0  0
 34 61  1  0  0  0  0
 34 62  1  0  0  0  0
 35 63  1  0  0  0  0
 35 64  1  0  0  0  0
 36 37  1  0  0  0  0
 36 65  1  0  0  0  0
 37 66  1  0  0  0  0
M  END
$$$$
