CHEMBL4213775
 OpenBabel04072215383D

 63 67  0  0  0  0  0  0  0  0999 V2000
    1.2102   -0.9552    0.8296 C   0  0  0  0  0  0  0  0  0  0  0  0
    1.6428    0.3723    0.2181 C   0  0  0  0  0  0  0  0  0  0  0  0
    1.3884    1.5568    1.0575 N   0  0  0  0  0  0  0  0  0  0  0  0
    1.8500    2.7866    0.3561 C   0  0  0  0  0  0  0  0  0  0  0  0
    3.3825    2.8997    0.1766 C   0  0  0  0  0  0  0  0  0  0  0  0
    4.1247    2.6181    1.4102 N   0  0  0  0  0  0  0  0  0  0  0  0
    4.8748    3.6212    1.9931 C   0  0  0  0  0  0  0  0  0  0  0  0
    5.9659    3.2753    2.7963 C   0  0  0  0  0  0  0  0  0  0  0  0
    6.7442    4.2571    3.3911 C   0  0  0  0  0  0  0  0  0  0  0  0
    6.4203    5.5924    3.1755 C   0  0  0  0  0  0  0  0  0  0  0  0
    7.2253    6.6463    3.7729 C   0  0  0  0  0  0  0  0  0  0  0  0
    7.8597    6.4568    4.9414 N   0  0  0  0  0  0  0  0  0  0  0  0
    8.5062    7.6234    5.1699 N   0  0  0  0  0  0  0  0  0  0  0  0
    9.3262    7.7313    6.3628 C   0  0  0  0  0  0  0  0  0  0  0  0
    8.5978    8.3085    7.5853 C   0  0  0  0  0  0  0  0  0  0  0  0
    9.4984    8.3532    8.8252 C   0  0  0  0  0  0  0  0  0  0  0  0
    8.5790    8.2367   10.0366 C   0  0  0  0  0  0  0  0  0  0  0  0
    7.2057    7.8333    9.5177 C   0  0  0  0  0  0  0  0  0  0  0  0
    7.3795    7.5033    8.0414 C   0  0  0  0  0  0  0  0  0  0  0  0
    8.3493    8.5375    4.1593 C   0  0  0  0  0  0  0  0  0  0  0  0
    8.8899    9.7645    4.0384 N   0  0  0  0  0  0  0  0  0  0  0  0
    8.5315   10.3824    2.8954 C   0  0  0  0  0  0  0  0  0  0  0  0
    9.0727   11.6242    2.6771 N   0  0  0  0  0  0  0  0  0  0  0  0
    8.7463   12.4086    1.5135 C   0  0  0  0  0  0  0  0  0  0  0  0
    7.7143    9.8835    1.9527 N   0  0  0  0  0  0  0  0  0  0  0  0
    7.1976    8.6551    2.1098 C   0  0  0  0  0  0  0  0  0  0  0  0
    7.5081    7.9285    3.2450 C   0  0  0  0  0  0  0  0  0  0  0  0
    5.3207    5.8577    2.3704 C   0  0  0  0  0  0  0  0  0  0  0  0
    4.5667    4.9115    1.7621 N   0  0  0  0  0  0  0  0  0  0  0  0
    3.6301    1.5383    2.2761 C   0  0  0  0  0  0  0  0  0  0  0  0
    2.0877    1.5239    2.3606 C   0  0  0  0  0  0  0  0  0  0  0  0
    1.3995   -1.7618    0.1123 H   0  0  0  0  0  0  0  0  0  0  0  0
    0.1425   -0.9590    1.0666 H   0  0  0  0  0  0  0  0  0  0  0  0
    1.7756   -1.1945    1.7350 H   0  0  0  0  0  0  0  0  0  0  0  0
    1.0830    0.4930   -0.7177 H   0  0  0  0  0  0  0  0  0  0  0  0
    2.6979    0.2822   -0.0591 H   0  0  0  0  0  0  0  0  0  0  0  0
    1.4980    3.6592    0.9223 H   0  0  0  0  0  0  0  0  0  0  0  0
    1.3648    2.8553   -0.6237 H   0  0  0  0  0  0  0  0  0  0  0  0
    3.6325    3.8681   -0.2659 H   0  0  0  0  0  0  0  0  0  0  0  0
    3.7121    2.1560   -0.5637 H   0  0  0  0  0  0  0  0  0  0  0  0
    6.2320    2.2373    2.9390 H   0  0  0  0  0  0  0  0  0  0  0  0
    7.6010    3.9820    3.9941 H   0  0  0  0  0  0  0  0  0  0  0  0
   10.2013    8.3380    6.1082 H   0  0  0  0  0  0  0  0  0  0  0  0
    9.7004    6.7185    6.5819 H   0  0  0  0  0  0  0  0  0  0  0  0
    8.2695    9.3294    7.3537 H   0  0  0  0  0  0  0  0  0  0  0  0
   10.0708    9.2867    8.8581 H   0  0  0  0  0  0  0  0  0  0  0  0
   10.2232    7.5304    8.8348 H   0  0  0  0  0  0  0  0  0  0  0  0
    8.5178    9.1868   10.5791 H   0  0  0  0  0  0  0  0  0  0  0  0
    8.9663    7.4929   10.7427 H   0  0  0  0  0  0  0  0  0  0  0  0
    6.5008    8.6627    9.6464 H   0  0  0  0  0  0  0  0  0  0  0  0
    6.8023    6.9789   10.0723 H   0  0  0  0  0  0  0  0  0  0  0  0
    6.4838    7.7828    7.4754 H   0  0  0  0  0  0  0  0  0  0  0  0
    7.5305    6.4250    7.9164 H   0  0  0  0  0  0  0  0  0  0  0  0
    9.6443   11.9852    3.4136 H   0  0  0  0  0  0  0  0  0  0  0  0
    8.0852   11.9145    0.7941 H   0  0  0  0  0  0  0  0  0  0  0  0
    9.6671   12.6651    0.9798 H   0  0  0  0  0  0  0  0  0  0  0  0
    8.2598   13.3422    1.8160 H   0  0  0  0  0  0  0  0  0  0  0  0
    6.5644    8.3039    1.3048 H   0  0  0  0  0  0  0  0  0  0  0  0
    4.9777    6.8694    2.1778 H   0  0  0  0  0  0  0  0  0  0  0  0
    4.0127    1.6111    3.3004 H   0  0  0  0  0  0  0  0  0  0  0  0
    3.9940    0.5864    1.8745 H   0  0  0  0  0  0  0  0  0  0  0  0
    1.7628    2.4004    2.9398 H   0  0  0  0  0  0  0  0  0  0  0  0
    1.7596    0.6641    2.9555 H   0  0  0  0  0  0  0  0  0  0  0  0
  1  2  1  0  0  0  0
  1 32  1  0  0  0  0
  1 33  1  0  0  0  0
  1 34  1  0  0  0  0
  2  3  1  0  0  0  0
  2 35  1  0  0  0  0
  2 36  1  0  0  0  0
  3  4  1  0  0  0  0
  3 31  1  0  0  0  0
  4  5  1  0  0  0  0
  4 37  1  0  0  0  0
  4 38  1  0  0  0  0
  5  6  1  0  0  0  0
  5 39  1  0  0  0  0
  5 40  1  0  0  0  0
  6  7  1  0  0  0  0
  6 30  1  0  0  0  0
  7  8  1  0  0  0  0
  7 29  2  0  0  0  0
  8  9  2  0  0  0  0
  8 41  1  0  0  0  0
  9 10  1  0  0  0  0
  9 42  1  0  0  0  0
 10 11  1  0  0  0  0
 10 28  2  0  0  0  0
 11 12  2  0  0  0  0
 11 27  1  0  0  0  0
 12 13  1  0  0  0  0
 13 14  1  0  0  0  0
 13 20  1  0  0  0  0
 14 15  1  0  0  0  0
 14 43  1  0  0  0  0
 14 44  1  0  0  0  0
 15 16  1  0  0  0  0
 15 19  1  0  0  0  0
 15 45  1  0  0  0  0
 16 17  1  0  0  0  0
 16 46  1  0  0  0  0
 16 47  1  0  0  0  0
 17 18  1  0  0  0  0
 17 48  1  0  0  0  0
 17 49  1  0  0  0  0
 18 19  1  0  0  0  0
 18 50  1  0  0  0  0
 18 51  1  0  0  0  0
 19 52  1  0  0  0  0
 19 53  1  0  0  0  0
 20 21  1  0  0  0  0
 20 27  2  0  0  0  0
 21 22  2  0  0  0  0
 22 23  1  0  0  0  0
 22 25  1  0  0  0  0
 23 24  1  0  0  0  0
 23 54  1  0  0  0  0
 24 55  1  0  0  0  0
 24 56  1  0  0  0  0
 24 57  1  0  0  0  0
 25 26  2  0  0  0  0
 26 27  1  0  0  0  0
 26 58  1  0  0  0  0
 28 29  1  0  0  0  0
 28 59  1  0  0  0  0
 30 31  1  0  0  0  0
 30 60  1  0  0  0  0
 30 61  1  0  0  0  0
 31 62  1  0  0  0  0
 31 63  1  0  0  0  0
M  END
$$$$
