CHEMBL3039504
 OpenBabel04072215363D

 85 88  0  0  0  0  0  0  0  0999 V2000
    1.6683   -1.1299    1.0942 C   0  0  0  0  0  0  0  0  0  0  0  0
    3.1414   -1.1902    0.7679 C   0  0  0  0  0  0  0  0  0  0  0  0
    3.5831   -2.6329   -0.1763 S   0  0  0  0  0  0  0  0  0  0  0  0
    3.4395   -3.8022    0.6458 O   0  0  0  0  0  0  0  0  0  0  0  0
    3.0625   -2.5027   -1.5203 O   0  0  0  0  0  0  0  0  0  0  0  0
    5.1740   -2.3269   -0.2268 O   0  0  0  0  0  0  0  0  0  0  0  0
    0.8723    1.3172   -2.1497 C   0  0  0  0  0  0  0  0  0  0  0  0
    2.2962    1.1520   -2.1244 O   0  0  0  0  0  0  0  0  0  0  0  0
    2.9143    1.8669   -1.1564 C   0  0  0  0  0  0  0  0  0  0  0  0
    2.3639    2.5924   -0.3418 O   0  0  0  0  0  0  0  0  0  0  0  0
    4.3907    1.6574   -1.1687 C   0  0  0  0  0  0  0  0  0  0  0  0
    5.0286    0.5494   -1.7754 C   0  0  0  0  0  0  0  0  0  0  0  0
    6.4289    0.3587   -1.6797 C   0  0  0  0  0  0  0  0  0  0  0  0
    7.1899    1.3203   -1.0376 C   0  0  0  0  0  0  0  0  0  0  0  0
    6.5247    2.4176   -0.4655 C   0  0  0  0  0  0  0  0  0  0  0  0
    5.1548    2.5939   -0.4771 C   0  0  0  0  0  0  0  0  0  0  0  0
    7.4246    3.3509    0.0223 N   0  0  0  0  0  0  0  0  0  0  0  0
    8.7201    2.9973   -0.2891 C   0  0  0  0  0  0  0  0  0  0  0  0
    9.6675    3.7640   -0.2685 O   0  0  0  0  0  0  0  0  0  0  0  0
    8.6406    1.5753   -0.8186 C   0  0  0  0  0  0  0  0  0  0  0  0
    9.7641    0.8387   -0.9902 C   0  0  0  0  0  0  0  0  0  0  0  0
   11.0779    1.1865   -0.6432 N   0  0  0  0  0  0  0  0  0  0  0  0
   11.4666    1.6838    0.6297 C   0  0  0  0  0  0  0  0  0  0  0  0
   10.9471    1.1529    1.8152 C   0  0  0  0  0  0  0  0  0  0  0  0
   11.2685    1.7175    3.0576 C   0  0  0  0  0  0  0  0  0  0  0  0
   12.1587    2.7953    3.1472 C   0  0  0  0  0  0  0  0  0  0  0  0
   12.3698    3.4621    4.3960 N   0  0  0  0  0  0  0  0  0  0  0  0
   11.1599    3.8681    5.1054 C   0  0  0  0  0  0  0  0  0  0  0  0
   13.6647    3.6719    4.8850 C   0  0  0  0  0  0  0  0  0  0  0  0
   14.6748    3.2873    4.2826 O   0  0  0  0  0  0  0  0  0  0  0  0
   13.8576    4.3935    6.2452 C   0  0  0  0  0  0  0  0  0  0  0  0
   13.2869    3.6746    7.4036 N   0  0  0  0  0  0  0  0  0  0  0  0
   13.7195    2.2698    7.4984 C   0  0  0  0  0  0  0  0  0  0  0  0
   12.8541    1.5885    8.5796 C   0  0  0  0  0  0  0  0  0  0  0  0
   13.0518    2.1213    9.9402 N   0  0  0  0  0  0  0  0  0  0  0  0
   14.2682    1.5918   10.5469 C   0  0  0  0  0  0  0  0  0  0  0  0
   13.0164    3.6008    9.9254 C   0  0  0  0  0  0  0  0  0  0  0  0
   13.6489    4.3190    8.6917 C   0  0  0  0  0  0  0  0  0  0  0  0
   12.7545    3.2675    1.9745 C   0  0  0  0  0  0  0  0  0  0  0  0
   12.4085    2.7183    0.7291 C   0  0  0  0  0  0  0  0  0  0  0  0
    9.7366   -0.4935   -1.6394 C   0  0  0  0  0  0  0  0  0  0  0  0
    9.8314   -0.5892   -3.0347 C   0  0  0  0  0  0  0  0  0  0  0  0
    9.9810   -1.8347   -3.6497 C   0  0  0  0  0  0  0  0  0  0  0  0
   10.0381   -2.9931   -2.8762 C   0  0  0  0  0  0  0  0  0  0  0  0
    9.9413   -2.9097   -1.4880 C   0  0  0  0  0  0  0  0  0  0  0  0
    9.7924   -1.6650   -0.8707 C   0  0  0  0  0  0  0  0  0  0  0  0
    1.4019   -0.1165    1.4125 H   0  0  0  0  0  0  0  0  0  0  0  0
    1.4309   -1.8166    1.9108 H   0  0  0  0  0  0  0  0  0  0  0  0
    1.0476   -1.3935    0.2329 H   0  0  0  0  0  0  0  0  0  0  0  0
    3.7485   -1.1806    1.6775 H   0  0  0  0  0  0  0  0  0  0  0  0
    3.4096   -0.3303    0.1664 H   0  0  0  0  0  0  0  0  0  0  0  0
    5.6031   -2.7638    0.5382 H   0  0  0  0  0  0  0  0  0  0  0  0
    0.4428    0.5025   -2.7389 H   0  0  0  0  0  0  0  0  0  0  0  0
    0.6168    2.2681   -2.6283 H   0  0  0  0  0  0  0  0  0  0  0  0
    0.4389    1.2708   -1.1443 H   0  0  0  0  0  0  0  0  0  0  0  0
    4.4347   -0.1979   -2.3034 H   0  0  0  0  0  0  0  0  0  0  0  0
    6.8775   -0.5221   -2.1307 H   0  0  0  0  0  0  0  0  0  0  0  0
    4.6948    3.4499    0.0070 H   0  0  0  0  0  0  0  0  0  0  0  0
    7.1916    4.2810    0.3374 H   0  0  0  0  0  0  0  0  0  0  0  0
   11.4985    1.7406   -1.3873 H   0  0  0  0  0  0  0  0  0  0  0  0
   10.2769    0.3006    1.7797 H   0  0  0  0  0  0  0  0  0  0  0  0
   10.8387    1.2848    3.9549 H   0  0  0  0  0  0  0  0  0  0  0  0
   10.3388    4.0198    4.3938 H   0  0  0  0  0  0  0  0  0  0  0  0
   11.3174    4.8187    5.6187 H   0  0  0  0  0  0  0  0  0  0  0  0
   10.8801    3.0976    5.8279 H   0  0  0  0  0  0  0  0  0  0  0  0
   13.4070    5.3895    6.1625 H   0  0  0  0  0  0  0  0  0  0  0  0
   14.9360    4.5445    6.3817 H   0  0  0  0  0  0  0  0  0  0  0  0
   14.7888    2.1935    7.7405 H   0  0  0  0  0  0  0  0  0  0  0  0
   13.5642    1.7335    6.5584 H   0  0  0  0  0  0  0  0  0  0  0  0
   13.0145    0.5044    8.5609 H   0  0  0  0  0  0  0  0  0  0  0  0
   11.7964    1.7295    8.3157 H   0  0  0  0  0  0  0  0  0  0  0  0
   14.2641    0.4951   10.5124 H   0  0  0  0  0  0  0  0  0  0  0  0
   14.3117    1.8591   11.6085 H   0  0  0  0  0  0  0  0  0  0  0  0
   15.1818    1.9465   10.0608 H   0  0  0  0  0  0  0  0  0  0  0  0
   13.4577    4.0027   10.8478 H   0  0  0  0  0  0  0  0  0  0  0  0
   11.9581    3.8894    9.9628 H   0  0  0  0  0  0  0  0  0  0  0  0
   14.7408    4.3343    8.8182 H   0  0  0  0  0  0  0  0  0  0  0  0
   13.3104    5.3624    8.6950 H   0  0  0  0  0  0  0  0  0  0  0  0
   13.4323    4.1177    2.0051 H   0  0  0  0  0  0  0  0  0  0  0  0
   12.8313    3.1620   -0.1693 H   0  0  0  0  0  0  0  0  0  0  0  0
    9.8360    0.3093   -3.6472 H   0  0  0  0  0  0  0  0  0  0  0  0
   10.0844   -1.8984   -4.7300 H   0  0  0  0  0  0  0  0  0  0  0  0
   10.1808   -3.9594   -3.3542 H   0  0  0  0  0  0  0  0  0  0  0  0
   10.0174   -3.8107   -0.8845 H   0  0  0  0  0  0  0  0  0  0  0  0
    9.7749   -1.6094    0.2143 H   0  0  0  0  0  0  0  0  0  0  0  0
  1  2  1  0  0  0  0
  1 47  1  0  0  0  0
  1 48  1  0  0  0  0
  1 49  1  0  0  0  0
  2  3  1  0  0  0  0
  2 50  1  0  0  0  0
  2 51  1  0  0  0  0
  3  4  2  0  0  0  0
  3  5  2  0  0  0  0
  3  6  1  0  0  0  0
  6 52  1  0  0  0  0
  7  8  1  0  0  0  0
  7 53  1  0  0  0  0
  7 54  1  0  0  0  0
  7 55  1  0  0  0  0
  8  9  1  0  0  0  0
  9 10  2  0  0  0  0
  9 11  1  0  0  0  0
 11 12  1  0  0  0  0
 11 16  2  0  0  0  0
 12 13  2  0  0  0  0
 12 56  1  0  0  0  0
 13 14  1  0  0  0  0
 13 57  1  0  0  0  0
 14 15  2  0  0  0  0
 14 20  1  0  0  0  0
 15 16  1  0  0  0  0
 15 17  1  0  0  0  0
 16 58  1  0  0  0  0
 17 18  1  0  0  0  0
 17 59  1  0  0  0  0
 18 19  2  0  0  0  0
 18 20  1  0  0  0  0
 20 21  2  0  0  0  0
 21 22  1  0  0  0  0
 21 41  1  0  0  0  0
 22 23  1  0  0  0  0
 22 60  1  0  0  0  0
 23 24  1  0  0  0  0
 23 40  2  0  0  0  0
 24 25  2  0  0  0  0
 24 61  1  0  0  0  0
 25 26  1  0  0  0  0
 25 62  1  0  0  0  0
 26 27  1  0  0  0  0
 26 39  2  0  0  0  0
 27 28  1  0  0  0  0
 27 29  1  0  0  0  0
 28 63  1  0  0  0  0
 28 64  1  0  0  0  0
 28 65  1  0  0  0  0
 29 30  2  0  0  0  0
 29 31  1  0  0  0  0
 31 32  1  0  0  0  0
 31 66  1  0  0  0  0
 31 67  1  0  0  0  0
 32 33  1  0  0  0  0
 32 38  1  0  0  0  0
 33 34  1  0  0  0  0
 33 68  1  0  0  0  0
 33 69  1  0  0  0  0
 34 35  1  0  0  0  0
 34 70  1  0  0  0  0
 34 71  1  0  0  0  0
 35 36  1  0  0  0  0
 35 37  1  0  0  0  0
 36 72  1  0  0  0  0
 36 73  1  0  0  0  0
 36 74  1  0  0  0  0
 37 38  1  0  0  0  0
 37 75  1  0  0  0  0
 37 76  1  0  0  0  0
 38 77  1  0  0  0  0
 38 78  1  0  0  0  0
 39 40  1  0  0  0  0
 39 79  1  0  0  0  0
 40 80  1  0  0  0  0
 41 42  1  0  0  0  0
 41 46  2  0  0  0  0
 42 43  2  0  0  0  0
 42 81  1  0  0  0  0
 43 44  1  0  0  0  0
 43 82  1  0  0  0  0
 44 45  2  0  0  0  0
 44 83  1  0  0  0  0
 45 46  1  0  0  0  0
 45 84  1  0  0  0  0
 46 85  1  0  0  0  0
M  END
$$$$
