CHEMBL3644557
 OpenBabel04072215373D

 67 70  0  0  0  0  0  0  0  0999 V2000
    4.0021   -0.9397   -0.2805 C   0  0  0  0  0  0  0  0  0  0  0  0
    2.7953   -0.0371   -0.0269 C   0  0  0  0  0  0  0  0  0  0  0  0
    1.5631   -0.8603    0.3585 C   0  0  0  0  0  0  0  0  0  0  0  0
    3.0993    1.0319    1.0093 C   0  0  0  0  0  0  0  0  0  0  0  0
    3.0876    2.3789    0.6204 C   0  0  0  0  0  0  0  0  0  0  0  0
    3.3239    3.3834    1.5523 C   0  0  0  0  0  0  0  0  0  0  0  0
    3.5356    3.0568    2.8901 C   0  0  0  0  0  0  0  0  0  0  0  0
    3.5095    1.7267    3.3189 C   0  0  0  0  0  0  0  0  0  0  0  0
    3.6064    1.3626    4.6878 N   0  0  0  0  0  0  0  0  0  0  0  0
    3.3296    2.2268    5.7386 C   0  0  0  0  0  0  0  0  0  0  0  0
    2.9243    3.3816    5.6243 O   0  0  0  0  0  0  0  0  0  0  0  0
    3.4757    1.7033    7.1233 C   0  0  0  0  0  0  0  0  0  0  0  0
    4.3576    0.6856    7.4767 C   0  0  0  0  0  0  0  0  0  0  0  0
    4.4919    0.3399    8.8184 C   0  0  0  0  0  0  0  0  0  0  0  0
    3.7576    1.0158    9.8100 C   0  0  0  0  0  0  0  0  0  0  0  0
    2.8751    2.0559    9.4929 C   0  0  0  0  0  0  0  0  0  0  0  0
    2.2211    2.7842   10.4699 N   0  0  0  0  0  0  0  0  0  0  0  0
    1.8502    4.1838   10.2603 C   0  0  0  0  0  0  0  0  0  0  0  0
    0.3530    4.2813    9.9806 C   0  0  0  0  0  0  0  0  0  0  0  0
   -0.4831    3.5071   10.9745 C   0  0  0  0  0  0  0  0  0  0  0  0
    0.1377    2.4980   11.7502 C   0  0  0  0  0  0  0  0  0  0  0  0
   -0.6394    1.8287   12.6939 C   0  0  0  0  0  0  0  0  0  0  0  0
   -1.9546    2.0553   12.8952 N   0  0  0  0  0  0  0  0  0  0  0  0
   -2.5320    3.0080   12.1230 C   0  0  0  0  0  0  0  0  0  0  0  0
   -1.8606    3.7467   11.1520 C   0  0  0  0  0  0  0  0  0  0  0  0
   -2.6682    4.7572   10.4189 C   0  0  0  0  0  0  0  0  0  0  0  0
   -3.5897    5.3386   10.9847 O   0  0  0  0  0  0  0  0  0  0  0  0
   -2.3860    4.9437    9.0815 N   0  0  0  0  0  0  0  0  0  0  0  0
   -3.1496    5.8595    8.2541 C   0  0  0  0  0  0  0  0  0  0  0  0
   -4.2788    5.1439    7.5152 C   0  0  0  0  0  0  0  0  0  0  0  0
   -5.3168    4.5223    8.4441 C   0  0  0  0  0  0  0  0  0  0  0  0
   -5.9082    5.5168    9.2661 O   0  0  0  0  0  0  0  0  0  0  0  0
    1.6117    2.1529   11.6410 C   0  0  0  0  0  0  0  0  0  0  0  0
    2.7456    2.3611    8.1316 C   0  0  0  0  0  0  0  0  0  0  0  0
    3.3483    0.7163    2.3618 C   0  0  0  0  0  0  0  0  0  0  0  0
    3.7666   -1.6933   -1.0402 H   0  0  0  0  0  0  0  0  0  0  0  0
    4.3179   -1.4651    0.6265 H   0  0  0  0  0  0  0  0  0  0  0  0
    4.8547   -0.3550   -0.6434 H   0  0  0  0  0  0  0  0  0  0  0  0
    2.5578    0.4566   -0.9793 H   0  0  0  0  0  0  0  0  0  0  0  0
    1.7261   -1.4391    1.2737 H   0  0  0  0  0  0  0  0  0  0  0  0
    1.3065   -1.5658   -0.4392 H   0  0  0  0  0  0  0  0  0  0  0  0
    0.6949   -0.2118    0.5228 H   0  0  0  0  0  0  0  0  0  0  0  0
    2.8855    2.6591   -0.4112 H   0  0  0  0  0  0  0  0  0  0  0  0
    3.3217    4.4270    1.2481 H   0  0  0  0  0  0  0  0  0  0  0  0
    3.7190    3.8725    3.5833 H   0  0  0  0  0  0  0  0  0  0  0  0
    3.6737    0.3747    4.8926 H   0  0  0  0  0  0  0  0  0  0  0  0
    4.9830    0.1903    6.7337 H   0  0  0  0  0  0  0  0  0  0  0  0
    5.2048   -0.4266    9.1157 H   0  0  0  0  0  0  0  0  0  0  0  0
    3.9419    0.7582   10.8502 H   0  0  0  0  0  0  0  0  0  0  0  0
    2.4227    4.6594    9.4564 H   0  0  0  0  0  0  0  0  0  0  0  0
    2.0939    4.7499   11.1698 H   0  0  0  0  0  0  0  0  0  0  0  0
    0.1558    3.8753    8.9823 H   0  0  0  0  0  0  0  0  0  0  0  0
    0.0768    5.3408    9.9931 H   0  0  0  0  0  0  0  0  0  0  0  0
   -0.2110    1.0684   13.3443 H   0  0  0  0  0  0  0  0  0  0  0  0
   -3.5932    3.1587   12.3135 H   0  0  0  0  0  0  0  0  0  0  0  0
   -1.7987    4.2753    8.6026 H   0  0  0  0  0  0  0  0  0  0  0  0
   -2.4501    6.2878    7.5274 H   0  0  0  0  0  0  0  0  0  0  0  0
   -3.5343    6.6834    8.8629 H   0  0  0  0  0  0  0  0  0  0  0  0
   -3.8592    4.3613    6.8716 H   0  0  0  0  0  0  0  0  0  0  0  0
   -4.7746    5.8744    6.8646 H   0  0  0  0  0  0  0  0  0  0  0  0
   -4.8823    3.7436    9.0787 H   0  0  0  0  0  0  0  0  0  0  0  0
   -6.1074    4.0514    7.8538 H   0  0  0  0  0  0  0  0  0  0  0  0
   -5.2592    5.7157    9.9759 H   0  0  0  0  0  0  0  0  0  0  0  0
    1.7131    1.0617   11.6153 H   0  0  0  0  0  0  0  0  0  0  0  0
    2.1206    2.5198   12.5412 H   0  0  0  0  0  0  0  0  0  0  0  0
    2.0575    3.1448    7.8222 H   0  0  0  0  0  0  0  0  0  0  0  0
    3.3604   -0.3262    2.6684 H   0  0  0  0  0  0  0  0  0  0  0  0
  1  2  1  0  0  0  0
  1 36  1  0  0  0  0
  1 37  1  0  0  0  0
  1 38  1  0  0  0  0
  2  3  1  0  0  0  0
  2  4  1  0  0  0  0
  2 39  1  0  0  0  0
  3 40  1  0  0  0  0
  3 41  1  0  0  0  0
  3 42  1  0  0  0  0
  4  5  1  0  0  0  0
  4 35  2  0  0  0  0
  5  6  2  0  0  0  0
  5 43  1  0  0  0  0
  6  7  1  0  0  0  0
  6 44  1  0  0  0  0
  7  8  2  0  0  0  0
  7 45  1  0  0  0  0
  8  9  1  0  0  0  0
  8 35  1  0  0  0  0
  9 10  1  0  0  0  0
  9 46  1  0  0  0  0
 10 11  2  0  0  0  0
 10 12  1  0  0  0  0
 12 13  1  0  0  0  0
 12 34  2  0  0  0  0
 13 14  2  0  0  0  0
 13 47  1  0  0  0  0
 14 15  1  0  0  0  0
 14 48  1  0  0  0  0
 15 16  2  0  0  0  0
 15 49  1  0  0  0  0
 16 17  1  0  0  0  0
 16 34  1  0  0  0  0
 17 18  1  0  0  0  0
 17 33  1  0  0  0  0
 18 19  1  0  0  0  0
 18 50  1  0  0  0  0
 18 51  1  0  0  0  0
 19 20  1  0  0  0  0
 19 52  1  0  0  0  0
 19 53  1  0  0  0  0
 20 21  1  0  0  0  0
 20 25  2  0  0  0  0
 21 22  2  0  0  0  0
 21 33  1  0  0  0  0
 22 23  1  0  0  0  0
 22 54  1  0  0  0  0
 23 24  2  0  0  0  0
 24 25  1  0  0  0  0
 24 55  1  0  0  0  0
 25 26  1  0  0  0  0
 26 27  2  0  0  0  0
 26 28  1  0  0  0  0
 28 29  1  0  0  0  0
 28 56  1  0  0  0  0
 29 30  1  0  0  0  0
 29 57  1  0  0  0  0
 29 58  1  0  0  0  0
 30 31  1  0  0  0  0
 30 59  1  0  0  0  0
 30 60  1  0  0  0  0
 31 32  1  0  0  0  0
 31 61  1  0  0  0  0
 31 62  1  0  0  0  0
 32 63  1  0  0  0  0
 33 64  1  0  0  0  0
 33 65  1  0  0  0  0
 34 66  1  0  0  0  0
 35 67  1  0  0  0  0
M  END
$$$$
