CHEMBL3690578
 OpenBabel04072215373D

 49 52  0  0  0  0  0  0  0  0999 V2000
    8.6896   -4.6834   -4.6276 C   0  0  0  0  0  0  0  0  0  0  0  0
    7.9453   -3.6023   -3.8752 C   0  0  0  0  0  0  0  0  0  0  0  0
    8.5535   -2.2912   -4.0103 N   0  0  0  0  0  0  0  0  0  0  0  0
    7.9080   -1.2467   -3.3755 C   0  0  0  0  0  0  0  0  0  0  0  0
    6.8468   -1.4083   -2.7911 O   0  0  0  0  0  0  0  0  0  0  0  0
    8.5841   -0.0527   -3.5225 N   0  0  0  0  0  0  0  0  0  0  0  0
    8.1692    1.1829   -2.9667 C   0  0  0  0  0  0  0  0  0  0  0  0
    7.2471    1.2802   -1.9233 C   0  0  0  0  0  0  0  0  0  0  0  0
    6.8086    2.5243   -1.4728 C   0  0  0  0  0  0  0  0  0  0  0  0
    7.2879    3.6886   -2.0666 C   0  0  0  0  0  0  0  0  0  0  0  0
    8.2444    3.6267   -3.0888 C   0  0  0  0  0  0  0  0  0  0  0  0
    8.7600    4.8734   -3.6671 C   0  0  0  0  0  0  0  0  0  0  0  0
    8.9604    6.1041   -3.0570 C   0  0  0  0  0  0  0  0  0  0  0  0
    9.5149    7.0217   -3.9047 N   0  0  0  0  0  0  0  0  0  0  0  0
    9.6499    6.3891   -5.0479 C   0  0  0  0  0  0  0  0  0  0  0  0
   10.1916    6.8333   -6.2872 C   0  0  0  0  0  0  0  0  0  0  0  0
   10.2174    6.0210   -7.3725 C   0  0  0  0  0  0  0  0  0  0  0  0
   10.7888    6.5218   -8.6479 C   0  0  0  0  0  0  0  0  0  0  0  0
   11.2609    7.7814   -8.6899 N   0  0  0  0  0  0  0  0  0  0  0  0
   11.7477    8.2036   -9.8753 C   0  0  0  0  0  0  0  0  0  0  0  0
   11.7856    7.4283  -11.0132 C   0  0  0  0  0  0  0  0  0  0  0  0
   12.2488    7.7727  -12.2426 O   0  0  0  0  0  0  0  0  0  0  0  0
   12.7544    9.0975  -12.3690 C   0  0  0  0  0  0  0  0  0  0  0  0
   11.2827    6.1553  -10.8544 C   0  0  0  0  0  0  0  0  0  0  0  0
   10.7833    5.6759   -9.6963 N   0  0  0  0  0  0  0  0  0  0  0  0
    9.6468    4.6710   -7.2592 C   0  0  0  0  0  0  0  0  0  0  0  0
    9.1212    4.2532   -6.0986 C   0  0  0  0  0  0  0  0  0  0  0  0
    9.1557    5.0886   -4.9821 N   0  0  0  0  0  0  0  0  0  0  0  0
    8.7044    2.3618   -3.4993 C   0  0  0  0  0  0  0  0  0  0  0  0
    8.1499   -5.6329   -4.5452 H   0  0  0  0  0  0  0  0  0  0  0  0
    9.6927   -4.8255   -4.2139 H   0  0  0  0  0  0  0  0  0  0  0  0
    8.7891   -4.4342   -5.6881 H   0  0  0  0  0  0  0  0  0  0  0  0
    7.9008   -3.8496   -2.8082 H   0  0  0  0  0  0  0  0  0  0  0  0
    6.9142   -3.5375   -4.2431 H   0  0  0  0  0  0  0  0  0  0  0  0
    9.5615   -2.2436   -3.9983 H   0  0  0  0  0  0  0  0  0  0  0  0
    9.2362   -0.0184   -4.2925 H   0  0  0  0  0  0  0  0  0  0  0  0
    6.8494    0.3976   -1.4320 H   0  0  0  0  0  0  0  0  0  0  0  0
    6.0837    2.5796   -0.6648 H   0  0  0  0  0  0  0  0  0  0  0  0
    6.9049    4.6444   -1.7159 H   0  0  0  0  0  0  0  0  0  0  0  0
    8.7522    6.3666   -2.0272 H   0  0  0  0  0  0  0  0  0  0  0  0
   10.5780    7.8474   -6.3131 H   0  0  0  0  0  0  0  0  0  0  0  0
   12.1105    9.2251   -9.8533 H   0  0  0  0  0  0  0  0  0  0  0  0
   13.0755    9.2371  -13.4049 H   0  0  0  0  0  0  0  0  0  0  0  0
   13.6260    9.2454  -11.7226 H   0  0  0  0  0  0  0  0  0  0  0  0
   11.9761    9.8382  -12.1557 H   0  0  0  0  0  0  0  0  0  0  0  0
   11.2636    5.4575  -11.6868 H   0  0  0  0  0  0  0  0  0  0  0  0
    9.6472    4.0291   -8.1354 H   0  0  0  0  0  0  0  0  0  0  0  0
    8.6612    3.2807   -6.0068 H   0  0  0  0  0  0  0  0  0  0  0  0
    9.4856    2.2865   -4.2488 H   0  0  0  0  0  0  0  0  0  0  0  0
  1  2  1  0  0  0  0
  1 30  1  0  0  0  0
  1 31  1  0  0  0  0
  1 32  1  0  0  0  0
  2  3  1  0  0  0  0
  2 33  1  0  0  0  0
  2 34  1  0  0  0  0
  3  4  1  0  0  0  0
  3 35  1  0  0  0  0
  4  5  2  0  0  0  0
  4  6  1  0  0  0  0
  6  7  1  0  0  0  0
  6 36  1  0  0  0  0
  7  8  1  0  0  0  0
  7 29  2  0  0  0  0
  8  9  2  0  0  0  0
  8 37  1  0  0  0  0
  9 10  1  0  0  0  0
  9 38  1  0  0  0  0
 10 11  2  0  0  0  0
 10 39  1  0  0  0  0
 11 12  1  0  0  0  0
 11 29  1  0  0  0  0
 12 13  2  0  0  0  0
 12 28  1  0  0  0  0
 13 14  1  0  0  0  0
 13 40  1  0  0  0  0
 14 15  2  0  0  0  0
 15 16  1  0  0  0  0
 15 28  1  0  0  0  0
 16 17  2  0  0  0  0
 16 41  1  0  0  0  0
 17 18  1  0  0  0  0
 17 26  1  0  0  0  0
 18 19  1  0  0  0  0
 18 25  2  0  0  0  0
 19 20  2  0  0  0  0
 20 21  1  0  0  0  0
 20 42  1  0  0  0  0
 21 22  1  0  0  0  0
 21 24  2  0  0  0  0
 22 23  1  0  0  0  0
 23 43  1  0  0  0  0
 23 44  1  0  0  0  0
 23 45  1  0  0  0  0
 24 25  1  0  0  0  0
 24 46  1  0  0  0  0
 26 27  2  0  0  0  0
 26 47  1  0  0  0  0
 27 28  1  0  0  0  0
 27 48  1  0  0  0  0
 29 49  1  0  0  0  0
M  END
$$$$
