CHEMBL405040
 OpenBabel04072215373D

 47 50  0  0  0  0  0  0  0  0999 V2000
    3.3180    0.4705    1.1842 C   0  0  0  0  0  0  0  0  0  0  0  0
    2.4250    0.1749    0.1002 O   0  0  0  0  0  0  0  0  0  0  0  0
    2.9647   -0.6156   -0.8821 C   0  0  0  0  0  0  0  0  0  0  0  0
    3.9828   -1.5373   -0.5927 C   0  0  0  0  0  0  0  0  0  0  0  0
    4.5836   -2.3219   -1.5547 C   0  0  0  0  0  0  0  0  0  0  0  0
    5.5840   -3.1136   -1.1238 N   0  0  0  0  0  0  0  0  0  0  0  0
    6.2080   -3.8885   -2.0274 C   0  0  0  0  0  0  0  0  0  0  0  0
    5.8871   -3.9039   -3.3590 C   0  0  0  0  0  0  0  0  0  0  0  0
    4.9004   -3.0288   -3.8181 C   0  0  0  0  0  0  0  0  0  0  0  0
    4.6316   -2.9183   -5.1697 O   0  0  0  0  0  0  0  0  0  0  0  0
    5.6934   -3.0086   -6.0586 C   0  0  0  0  0  0  0  0  0  0  0  0
    5.4544   -3.6436   -7.2750 C   0  0  0  0  0  0  0  0  0  0  0  0
    6.4734   -3.7512   -8.2391 C   0  0  0  0  0  0  0  0  0  0  0  0
    7.7384   -3.1824   -8.0328 C   0  0  0  0  0  0  0  0  0  0  0  0
    7.9753   -2.5847   -6.7783 C   0  0  0  0  0  0  0  0  0  0  0  0
    6.9650   -2.4878   -5.8124 C   0  0  0  0  0  0  0  0  0  0  0  0
    9.1831   -2.0559   -6.3823 O   0  0  0  0  0  0  0  0  0  0  0  0
   10.0441   -1.7493   -7.4792 C   0  0  0  0  0  0  0  0  0  0  0  0
   10.1207   -2.9088   -8.4525 C   0  0  0  0  0  0  0  0  0  0  0  0
    8.7921   -3.1882   -9.0081 N   0  0  0  0  0  0  0  0  0  0  0  0
    8.7265   -3.4134  -10.3686 C   0  0  0  0  0  0  0  0  0  0  0  0
    7.5066   -3.4904  -10.9479 N   0  0  0  0  0  0  0  0  0  0  0  0
    9.7096   -3.4937  -11.1035 O   0  0  0  0  0  0  0  0  0  0  0  0
    4.1591   -2.2428   -2.8869 C   0  0  0  0  0  0  0  0  0  0  0  0
    3.0582   -1.3910   -3.1769 C   0  0  0  0  0  0  0  0  0  0  0  0
    2.4752   -0.5634   -2.1896 C   0  0  0  0  0  0  0  0  0  0  0  0
    1.4192    0.1722   -2.6519 O   0  0  0  0  0  0  0  0  0  0  0  0
    1.2455    1.4971   -2.1574 C   0  0  0  0  0  0  0  0  0  0  0  0
    2.8949    1.2855    1.7765 H   0  0  0  0  0  0  0  0  0  0  0  0
    4.2952    0.8032    0.8121 H   0  0  0  0  0  0  0  0  0  0  0  0
    3.4327   -0.3919    1.8522 H   0  0  0  0  0  0  0  0  0  0  0  0
    4.3427   -1.6724    0.4217 H   0  0  0  0  0  0  0  0  0  0  0  0
    7.0177   -4.4952   -1.6341 H   0  0  0  0  0  0  0  0  0  0  0  0
    6.4403   -4.5493   -4.0331 H   0  0  0  0  0  0  0  0  0  0  0  0
    4.4787   -4.0804   -7.4761 H   0  0  0  0  0  0  0  0  0  0  0  0
    6.2478   -4.3304   -9.1298 H   0  0  0  0  0  0  0  0  0  0  0  0
    7.1997   -2.0009   -4.8693 H   0  0  0  0  0  0  0  0  0  0  0  0
   11.0374   -1.5402   -7.0689 H   0  0  0  0  0  0  0  0  0  0  0  0
    9.6866   -0.8327   -7.9647 H   0  0  0  0  0  0  0  0  0  0  0  0
   10.4569   -3.8234   -7.9485 H   0  0  0  0  0  0  0  0  0  0  0  0
   10.8455   -2.6735   -9.2394 H   0  0  0  0  0  0  0  0  0  0  0  0
    6.8076   -2.8469  -10.6066 H   0  0  0  0  0  0  0  0  0  0  0  0
    7.5638   -3.5369  -11.9576 H   0  0  0  0  0  0  0  0  0  0  0  0
    2.6440   -1.3651   -4.1822 H   0  0  0  0  0  0  0  0  0  0  0  0
    1.0724    2.1488   -3.0208 H   0  0  0  0  0  0  0  0  0  0  0  0
    2.1073    1.9007   -1.6193 H   0  0  0  0  0  0  0  0  0  0  0  0
    0.3461    1.5385   -1.5334 H   0  0  0  0  0  0  0  0  0  0  0  0
  1  2  1  0  0  0  0
  1 29  1  0  0  0  0
  1 30  1  0  0  0  0
  1 31  1  0  0  0  0
  2  3  1  0  0  0  0
  3  4  1  0  0  0  0
  3 26  2  0  0  0  0
  4  5  2  0  0  0  0
  4 32  1  0  0  0  0
  5  6  1  0  0  0  0
  5 24  1  0  0  0  0
  6  7  2  0  0  0  0
  7  8  1  0  0  0  0
  7 33  1  0  0  0  0
  8  9  2  0  0  0  0
  8 34  1  0  0  0  0
  9 10  1  0  0  0  0
  9 24  1  0  0  0  0
 10 11  1  0  0  0  0
 11 12  1  0  0  0  0
 11 16  2  0  0  0  0
 12 13  2  0  0  0  0
 12 35  1  0  0  0  0
 13 14  1  0  0  0  0
 13 36  1  0  0  0  0
 14 15  2  0  0  0  0
 14 20  1  0  0  0  0
 15 16  1  0  0  0  0
 15 17  1  0  0  0  0
 16 37  1  0  0  0  0
 17 18  1  0  0  0  0
 18 19  1  0  0  0  0
 18 38  1  0  0  0  0
 18 39  1  0  0  0  0
 19 20  1  0  0  0  0
 19 40  1  0  0  0  0
 19 41  1  0  0  0  0
 20 21  1  0  0  0  0
 21 22  1  0  0  0  0
 21 23  2  0  0  0  0
 22 42  1  0  0  0  0
 22 43  1  0  0  0  0
 24 25  2  0  0  0  0
 25 26  1  0  0  0  0
 25 44  1  0  0  0  0
 26 27  1  0  0  0  0
 27 28  1  0  0  0  0
 28 45  1  0  0  0  0
 28 46  1  0  0  0  0
 28 47  1  0  0  0  0
M  END
$$$$
