CHEMBL4572765
 OpenBabel04072215383D

 53 57  0  0  0  0  0  0  0  0999 V2000
   -0.5330    2.7044   -6.1997 C   0  0  0  0  0  0  0  0  0  0  0  0
   -1.6618    3.5374   -5.6612 C   0  0  0  0  0  0  0  0  0  0  0  0
   -2.2652    4.5183   -6.4604 C   0  0  0  0  0  0  0  0  0  0  0  0
   -3.3407    5.2597   -5.9720 C   0  0  0  0  0  0  0  0  0  0  0  0
   -3.8216    5.0105   -4.6922 C   0  0  0  0  0  0  0  0  0  0  0  0
   -4.8507    5.7357   -4.2266 F   0  0  0  0  0  0  0  0  0  0  0  0
   -3.2125    4.0676   -3.8585 C   0  0  0  0  0  0  0  0  0  0  0  0
   -3.7332    3.8995   -2.5534 N   0  0  0  0  0  0  0  0  0  0  0  0
   -2.9391    3.7306   -1.4375 C   0  0  0  0  0  0  0  0  0  0  0  0
   -1.7059    3.7270   -1.4729 O   0  0  0  0  0  0  0  0  0  0  0  0
   -3.6443    3.6391   -0.0921 C   0  0  0  0  0  0  0  0  0  0  0  0
   -5.1429    3.4409   -0.0697 C   0  0  0  0  0  0  0  0  0  0  0  0
   -5.6907    2.1559   -0.1373 C   0  0  0  0  0  0  0  0  0  0  0  0
   -7.0768    1.9641   -0.0571 C   0  0  0  0  0  0  0  0  0  0  0  0
   -7.9468    3.0548    0.0916 C   0  0  0  0  0  0  0  0  0  0  0  0
   -9.3599    2.8444    0.1904 N   0  0  0  0  0  0  0  0  0  0  0  0
   -9.9473    1.7380    0.7674 C   0  0  0  0  0  0  0  0  0  0  0  0
  -11.3072    1.8558    0.7516 C   0  0  0  0  0  0  0  0  0  0  0  0
  -11.6286    3.0445    0.1141 C   0  0  0  0  0  0  0  0  0  0  0  0
  -12.8559    3.5425   -0.1296 N   0  0  0  0  0  0  0  0  0  0  0  0
  -12.8349    4.7058   -0.7763 C   0  0  0  0  0  0  0  0  0  0  0  0
  -11.7585    5.3795   -1.1992 N   0  0  0  0  0  0  0  0  0  0  0  0
  -10.5269    4.8691   -0.9593 C   0  0  0  0  0  0  0  0  0  0  0  0
   -9.4881    5.6132   -1.5015 N   0  0  0  0  0  0  0  0  0  0  0  0
  -10.4214    3.6716   -0.2507 C   0  0  0  0  0  0  0  0  0  0  0  0
  -11.9813    0.7422    1.4436 C   0  0  0  0  0  0  0  0  0  0  0  0
  -10.7967    0.1201    2.2500 C   0  0  0  0  0  0  0  0  0  0  0  0
   -9.4786    0.5498    1.5218 C   0  0  0  0  0  0  0  0  0  0  0  0
   -7.3942    4.3354    0.1814 C   0  0  0  0  0  0  0  0  0  0  0  0
   -6.0104    4.5300    0.0779 C   0  0  0  0  0  0  0  0  0  0  0  0
   -2.1315    3.3296   -4.3501 C   0  0  0  0  0  0  0  0  0  0  0  0
   -0.2496    3.0172   -7.2108 H   0  0  0  0  0  0  0  0  0  0  0  0
   -0.8314    1.6518   -6.2483 H   0  0  0  0  0  0  0  0  0  0  0  0
    0.3505    2.8000   -5.5612 H   0  0  0  0  0  0  0  0  0  0  0  0
   -1.8999    4.7111   -7.4672 H   0  0  0  0  0  0  0  0  0  0  0  0
   -3.7990    6.0351   -6.5763 H   0  0  0  0  0  0  0  0  0  0  0  0
   -4.6593    4.2854   -2.4028 H   0  0  0  0  0  0  0  0  0  0  0  0
   -3.3938    4.5516    0.4664 H   0  0  0  0  0  0  0  0  0  0  0  0
   -3.1773    2.8055    0.4499 H   0  0  0  0  0  0  0  0  0  0  0  0
   -5.0421    1.2867   -0.2344 H   0  0  0  0  0  0  0  0  0  0  0  0
   -7.4477    0.9471   -0.1370 H   0  0  0  0  0  0  0  0  0  0  0  0
  -13.7970    5.1505   -1.0030 H   0  0  0  0  0  0  0  0  0  0  0  0
   -9.8743    6.3168   -2.1235 H   0  0  0  0  0  0  0  0  0  0  0  0
   -8.7504    5.0528   -1.9045 H   0  0  0  0  0  0  0  0  0  0  0  0
  -12.3794    0.0186    0.7247 H   0  0  0  0  0  0  0  0  0  0  0  0
  -12.7828    1.0729    2.1095 H   0  0  0  0  0  0  0  0  0  0  0  0
  -10.8863   -0.9663    2.3466 H   0  0  0  0  0  0  0  0  0  0  0  0
  -10.7966    0.5424    3.2629 H   0  0  0  0  0  0  0  0  0  0  0  0
   -9.1594   -0.2465    0.8420 H   0  0  0  0  0  0  0  0  0  0  0  0
   -8.6888    0.7698    2.2439 H   0  0  0  0  0  0  0  0  0  0  0  0
   -8.0151    5.2040    0.3937 H   0  0  0  0  0  0  0  0  0  0  0  0
   -5.6188    5.5431    0.1526 H   0  0  0  0  0  0  0  0  0  0  0  0
   -1.6636    2.5647   -3.7324 H   0  0  0  0  0  0  0  0  0  0  0  0
  1  2  1  0  0  0  0
  1 32  1  0  0  0  0
  1 33  1  0  0  0  0
  1 34  1  0  0  0  0
  2  3  1  0  0  0  0
  2 31  2  0  0  0  0
  3  4  2  0  0  0  0
  3 35  1  0  0  0  0
  4  5  1  0  0  0  0
  4 36  1  0  0  0  0
  5  6  1  0  0  0  0
  5  7  2  0  0  0  0
  7  8  1  0  0  0  0
  7 31  1  0  0  0  0
  8  9  1  0  0  0  0
  8 37  1  0  0  0  0
  9 10  2  0  0  0  0
  9 11  1  0  0  0  0
 11 12  1  0  0  0  0
 11 38  1  0  0  0  0
 11 39  1  0  0  0  0
 12 13  1  0  0  0  0
 12 30  2  0  0  0  0
 13 14  2  0  0  0  0
 13 40  1  0  0  0  0
 14 15  1  0  0  0  0
 14 41  1  0  0  0  0
 15 16  1  0  0  0  0
 15 29  2  0  0  0  0
 16 17  1  0  0  0  0
 16 25  1  0  0  0  0
 17 18  2  0  0  0  0
 17 28  1  0  0  0  0
 18 19  1  0  0  0  0
 18 26  1  0  0  0  0
 19 20  1  0  0  0  0
 19 25  2  0  0  0  0
 20 21  2  0  0  0  0
 21 22  1  0  0  0  0
 21 42  1  0  0  0  0
 22 23  2  0  0  0  0
 23 24  1  0  0  0  0
 23 25  1  0  0  0  0
 24 43  1  0  0  0  0
 24 44  1  0  0  0  0
 26 27  1  0  0  0  0
 26 45  1  0  0  0  0
 26 46  1  0  0  0  0
 27 28  1  0  0  0  0
 27 47  1  0  0  0  0
 27 48  1  0  0  0  0
 28 49  1  0  0  0  0
 28 50  1  0  0  0  0
 29 30  1  0  0  0  0
 29 51  1  0  0  0  0
 30 52  1  0  0  0  0
 31 53  1  0  0  0  0
M  END
$$$$
