CHEMBL3827784
 OpenBabel04072215373D

 62 67  0  0  0  0  0  0  0  0999 V2000
    1.0154   -0.0770    0.1076 O   0  0  0  0  0  0  0  0  0  0  0  0
    2.2320   -0.0333    0.1135 C   0  0  0  0  0  0  0  0  0  0  0  0
    3.1141   -1.1858    0.1991 C   0  0  0  0  0  0  0  0  0  0  0  0
    2.7551   -2.5225    0.2877 C   0  0  0  0  0  0  0  0  0  0  0  0
    3.7917   -3.4363    0.4004 C   0  0  0  0  0  0  0  0  0  0  0  0
    3.5569   -4.7762    0.4744 O   0  0  0  0  0  0  0  0  0  0  0  0
    5.1212   -3.0107    0.4574 C   0  0  0  0  0  0  0  0  0  0  0  0
    5.4404   -1.6455    0.3899 C   0  0  0  0  0  0  0  0  0  0  0  0
    4.4251   -0.7137    0.2167 C   0  0  0  0  0  0  0  0  0  0  0  0
    4.3849    0.7509    0.0766 C   0  0  0  0  0  0  0  0  0  0  0  0
    3.1006    1.1588    0.0615 C   0  0  0  0  0  0  0  0  0  0  0  0
    2.7381    2.5670    0.0165 C   0  0  0  0  0  0  0  0  0  0  0  0
    1.4166    3.0293   -0.0004 C   0  0  0  0  0  0  0  0  0  0  0  0
    1.1419    4.4015   -0.0526 C   0  0  0  0  0  0  0  0  0  0  0  0
    2.1891    5.3134   -0.0805 C   0  0  0  0  0  0  0  0  0  0  0  0
    1.9691    6.6561   -0.1405 O   0  0  0  0  0  0  0  0  0  0  0  0
    3.5041    4.8800   -0.0494 C   0  0  0  0  0  0  0  0  0  0  0  0
    3.7774    3.5067    0.0004 C   0  0  0  0  0  0  0  0  0  0  0  0
    5.1917    3.0545    0.0266 C   0  0  0  0  0  0  0  0  0  0  0  0
    6.0656    3.9217    0.0191 O   0  0  0  0  0  0  0  0  0  0  0  0
    5.4379    1.6548    0.0337 N   0  0  0  0  0  0  0  0  0  0  0  0
    6.8092    1.2832    0.0497 C   0  0  0  0  0  0  0  0  0  0  0  0
    7.5985    1.7431    1.0992 C   0  0  0  0  0  0  0  0  0  0  0  0
    8.9478    1.4359    1.1428 C   0  0  0  0  0  0  0  0  0  0  0  0
    9.5477    0.6702    0.1334 C   0  0  0  0  0  0  0  0  0  0  0  0
   10.8908    0.3409    0.1111 O   0  0  0  0  0  0  0  0  0  0  0  0
   11.6083    0.9921    1.1654 C   0  0  0  0  0  0  0  0  0  0  0  0
   13.1217    0.7761    1.1703 C   0  0  0  0  0  0  0  0  0  0  0  0
   13.7477    1.4255    2.3546 N   0  0  0  0  0  0  0  0  0  0  0  0
   15.1925    1.1606    2.3700 C   0  0  0  0  0  0  0  0  0  0  0  0
   15.8871    1.8088    3.5708 C   0  0  0  0  0  0  0  0  0  0  0  0
   15.6165    3.3063    3.6275 C   0  0  0  0  0  0  0  0  0  0  0  0
   14.1187    3.5526    3.6208 C   0  0  0  0  0  0  0  0  0  0  0  0
   13.4595    2.8707    2.4236 C   0  0  0  0  0  0  0  0  0  0  0  0
    8.7605    0.2122   -0.9259 C   0  0  0  0  0  0  0  0  0  0  0  0
    7.3917    0.5242   -0.9740 C   0  0  0  0  0  0  0  0  0  0  0  0
    1.7128   -2.8150    0.2703 H   0  0  0  0  0  0  0  0  0  0  0  0
    2.5981   -4.9341    0.4388 H   0  0  0  0  0  0  0  0  0  0  0  0
    5.9172   -3.7456    0.5632 H   0  0  0  0  0  0  0  0  0  0  0  0
    6.4813   -1.3661    0.4890 H   0  0  0  0  0  0  0  0  0  0  0  0
    0.5804    2.3326    0.0244 H   0  0  0  0  0  0  0  0  0  0  0  0
    0.1070    4.7328   -0.0713 H   0  0  0  0  0  0  0  0  0  0  0  0
    1.0125    6.8172   -0.1799 H   0  0  0  0  0  0  0  0  0  0  0  0
    4.3132    5.6074   -0.0705 H   0  0  0  0  0  0  0  0  0  0  0  0
    7.1735    2.3547    1.8916 H   0  0  0  0  0  0  0  0  0  0  0  0
    9.4951    1.8402    1.9865 H   0  0  0  0  0  0  0  0  0  0  0  0
   11.2295    0.6260    2.1286 H   0  0  0  0  0  0  0  0  0  0  0  0
   11.4338    2.0669    1.0480 H   0  0  0  0  0  0  0  0  0  0  0  0
   13.5535    1.1495    0.2336 H   0  0  0  0  0  0  0  0  0  0  0  0
   13.3146   -0.3042    1.1951 H   0  0  0  0  0  0  0  0  0  0  0  0
   15.6585    1.5218    1.4449 H   0  0  0  0  0  0  0  0  0  0  0  0
   15.3640    0.0789    2.4237 H   0  0  0  0  0  0  0  0  0  0  0  0
   16.9666    1.6328    3.5106 H   0  0  0  0  0  0  0  0  0  0  0  0
   15.5359    1.3393    4.4986 H   0  0  0  0  0  0  0  0  0  0  0  0
   16.0735    3.8002    2.7613 H   0  0  0  0  0  0  0  0  0  0  0  0
   16.0654    3.7425    4.5257 H   0  0  0  0  0  0  0  0  0  0  0  0
   13.9155    4.6294    3.5879 H   0  0  0  0  0  0  0  0  0  0  0  0
   13.6755    3.1743    4.5513 H   0  0  0  0  0  0  0  0  0  0  0  0
   13.7709    3.3680    1.4962 H   0  0  0  0  0  0  0  0  0  0  0  0
   12.3859    3.0431    2.5483 H   0  0  0  0  0  0  0  0  0  0  0  0
    9.2075   -0.3726   -1.7246 H   0  0  0  0  0  0  0  0  0  0  0  0
    6.7947    0.1860   -1.8154 H   0  0  0  0  0  0  0  0  0  0  0  0
  1  2  2  0  0  0  0
  2  3  1  0  0  0  0
  2 11  1  0  0  0  0
  3  4  1  0  0  0  0
  3  9  2  0  0  0  0
  4  5  2  0  0  0  0
  4 37  1  0  0  0  0
  5  6  1  0  0  0  0
  5  7  1  0  0  0  0
  6 38  1  0  0  0  0
  7  8  2  0  0  0  0
  7 39  1  0  0  0  0
  8  9  1  0  0  0  0
  8 40  1  0  0  0  0
  9 10  1  0  0  0  0
 10 11  2  0  0  0  0
 10 21  1  0  0  0  0
 11 12  1  0  0  0  0
 12 13  1  0  0  0  0
 12 18  2  0  0  0  0
 13 14  2  0  0  0  0
 13 41  1  0  0  0  0
 14 15  1  0  0  0  0
 14 42  1  0  0  0  0
 15 16  1  0  0  0  0
 15 17  2  0  0  0  0
 16 43  1  0  0  0  0
 17 18  1  0  0  0  0
 17 44  1  0  0  0  0
 18 19  1  0  0  0  0
 19 20  2  0  0  0  0
 19 21  1  0  0  0  0
 21 22  1  0  0  0  0
 22 23  1  0  0  0  0
 22 36  2  0  0  0  0
 23 24  2  0  0  0  0
 23 45  1  0  0  0  0
 24 25  1  0  0  0  0
 24 46  1  0  0  0  0
 25 26  1  0  0  0  0
 25 35  2  0  0  0  0
 26 27  1  0  0  0  0
 27 28  1  0  0  0  0
 27 47  1  0  0  0  0
 27 48  1  0  0  0  0
 28 29  1  0  0  0  0
 28 49  1  0  0  0  0
 28 50  1  0  0  0  0
 29 30  1  0  0  0  0
 29 34  1  0  0  0  0
 30 31  1  0  0  0  0
 30 51  1  0  0  0  0
 30 52  1  0  0  0  0
 31 32  1  0  0  0  0
 31 53  1  0  0  0  0
 31 54  1  0  0  0  0
 32 33  1  0  0  0  0
 32 55  1  0  0  0  0
 32 56  1  0  0  0  0
 33 34  1  0  0  0  0
 33 57  1  0  0  0  0
 33 58  1  0  0  0  0
 34 59  1  0  0  0  0
 34 60  1  0  0  0  0
 35 36  1  0  0  0  0
 35 61  1  0  0  0  0
 36 62  1  0  0  0  0
M  END
$$$$
