CHEMBL306012
 OpenBabel04072215363D

 38 40  0  0  0  0  0  0  0  0999 V2000
    3.4219    1.0191   -0.4365 C   0  0  0  0  0  0  0  0  0  0  0  0
    2.4005   -0.0783   -0.0445 C   0  0  0  0  0  0  0  0  0  0  0  0
    2.0829    0.1305    1.4512 C   0  0  0  0  0  0  0  0  0  0  0  0
    1.1318    0.1669   -0.8881 C   0  0  0  0  0  0  0  0  0  0  0  0
    2.9162   -1.4454   -0.2889 N   0  0  0  0  0  0  0  0  0  0  0  0
    4.1287   -1.7723   -0.8533 C   0  0  0  0  0  0  0  0  0  0  0  0
    4.2425   -3.1497   -0.9337 C   0  0  0  0  0  0  0  0  0  0  0  0
    5.4328   -3.8088   -1.4766 C   0  0  0  0  0  0  0  0  0  0  0  0
    6.7160   -3.2859   -1.2502 C   0  0  0  0  0  0  0  0  0  0  0  0
    7.8563   -3.9758   -1.6794 C   0  0  0  0  0  0  0  0  0  0  0  0
    7.7225   -5.2046   -2.3195 C   0  0  0  0  0  0  0  0  0  0  0  0
    9.1225   -6.0929   -2.7753 Cl  0  0  0  0  0  0  0  0  0  0  0  0
    6.4590   -5.7193   -2.5878 C   0  0  0  0  0  0  0  0  0  0  0  0
    5.3223   -5.0027   -2.2012 C   0  0  0  0  0  0  0  0  0  0  0  0
    3.0347   -3.6993   -0.3842 C   0  0  0  0  0  0  0  0  0  0  0  0
    2.4923   -4.9774   -0.1360 C   0  0  0  0  0  0  0  0  0  0  0  0
    3.1346   -6.1849   -0.3866 N   0  0  0  0  0  0  0  0  0  0  0  0
    1.2660   -5.0809    0.4096 N   0  0  0  0  0  0  0  0  0  0  0  0
    0.6057   -3.9531    0.7095 C   0  0  0  0  0  0  0  0  0  0  0  0
    1.0173   -2.6910    0.5467 N   0  0  0  0  0  0  0  0  0  0  0  0
    2.2410   -2.6177   -0.0085 C   0  0  0  0  0  0  0  0  0  0  0  0
    3.0341    2.0197   -0.2104 H   0  0  0  0  0  0  0  0  0  0  0  0
    3.6462    0.9961   -1.5094 H   0  0  0  0  0  0  0  0  0  0  0  0
    4.3642    0.9070    0.1123 H   0  0  0  0  0  0  0  0  0  0  0  0
    1.7786    1.1656    1.6486 H   0  0  0  0  0  0  0  0  0  0  0  0
    2.9601   -0.0827    2.0740 H   0  0  0  0  0  0  0  0  0  0  0  0
    1.2666   -0.5075    1.8017 H   0  0  0  0  0  0  0  0  0  0  0  0
    0.7655    1.1924   -0.7616 H   0  0  0  0  0  0  0  0  0  0  0  0
    0.3106   -0.5008   -0.6097 H   0  0  0  0  0  0  0  0  0  0  0  0
    1.3329    0.0120   -1.9547 H   0  0  0  0  0  0  0  0  0  0  0  0
    4.8269   -1.0059   -1.1624 H   0  0  0  0  0  0  0  0  0  0  0  0
    6.8488   -2.3462   -0.7195 H   0  0  0  0  0  0  0  0  0  0  0  0
    8.8416   -3.5575   -1.4924 H   0  0  0  0  0  0  0  0  0  0  0  0
    6.3443   -6.6766   -3.0892 H   0  0  0  0  0  0  0  0  0  0  0  0
    4.3453   -5.4066   -2.4589 H   0  0  0  0  0  0  0  0  0  0  0  0
    4.1310   -6.1535   -0.2092 H   0  0  0  0  0  0  0  0  0  0  0  0
    2.6373   -6.9370    0.0774 H   0  0  0  0  0  0  0  0  0  0  0  0
   -0.3794   -4.0841    1.1479 H   0  0  0  0  0  0  0  0  0  0  0  0
  1  2  1  0  0  0  0
  1 22  1  0  0  0  0
  1 23  1  0  0  0  0
  1 24  1  0  0  0  0
  2  3  1  0  0  0  0
  2  4  1  0  0  0  0
  2  5  1  0  0  0  0
  3 25  1  0  0  0  0
  3 26  1  0  0  0  0
  3 27  1  0  0  0  0
  4 28  1  0  0  0  0
  4 29  1  0  0  0  0
  4 30  1  0  0  0  0
  5  6  1  0  0  0  0
  5 21  1  0  0  0  0
  6  7  2  0  0  0  0
  6 31  1  0  0  0  0
  7  8  1  0  0  0  0
  7 15  1  0  0  0  0
  8  9  1  0  0  0  0
  8 14  2  0  0  0  0
  9 10  2  0  0  0  0
  9 32  1  0  0  0  0
 10 11  1  0  0  0  0
 10 33  1  0  0  0  0
 11 12  1  0  0  0  0
 11 13  2  0  0  0  0
 13 14  1  0  0  0  0
 13 34  1  0  0  0  0
 14 35  1  0  0  0  0
 15 16  1  0  0  0  0
 15 21  2  0  0  0  0
 16 17  1  0  0  0  0
 16 18  2  0  0  0  0
 17 36  1  0  0  0  0
 17 37  1  0  0  0  0
 18 19  1  0  0  0  0
 19 20  2  0  0  0  0
 19 38  1  0  0  0  0
 20 21  1  0  0  0  0
M  END
$$$$
