CHEMBL3952726
 OpenBabel04072215373D

 51 54  0  0  0  0  0  0  0  0999 V2000
    1.0872   -0.6024    0.0476 O   0  0  0  0  0  0  0  0  0  0  0  0
    2.2054   -0.1038   -0.0285 C   0  0  0  0  0  0  0  0  0  0  0  0
    2.7844    0.6276    0.9909 N   0  0  0  0  0  0  0  0  0  0  0  0
    2.1860    0.9083    2.2421 C   0  0  0  0  0  0  0  0  0  0  0  0
    1.0436    0.2759    2.7392 C   0  0  0  0  0  0  0  0  0  0  0  0
    0.4933    0.6684    3.9640 C   0  0  0  0  0  0  0  0  0  0  0  0
    1.1268    1.6766    4.6724 C   0  0  0  0  0  0  0  0  0  0  0  0
    0.5458    2.0965    5.8676 O   0  0  0  0  0  0  0  0  0  0  0  0
    0.7580    3.4105    6.2411 C   0  0  0  0  0  0  0  0  0  0  0  0
    0.7827    4.4507    5.3162 C   0  0  0  0  0  0  0  0  0  0  0  0
    1.0446    5.7175    5.7764 C   0  0  0  0  0  0  0  0  0  0  0  0
    1.2175    6.0059    7.0778 N   0  0  0  0  0  0  0  0  0  0  0  0
    1.1406    5.0155    7.9815 C   0  0  0  0  0  0  0  0  0  0  0  0
    1.2991    5.3265    9.3434 N   0  0  0  0  0  0  0  0  0  0  0  0
    1.5474    6.6037    9.8097 C   0  0  0  0  0  0  0  0  0  0  0  0
    1.6743    7.6326    9.1604 O   0  0  0  0  0  0  0  0  0  0  0  0
    1.6838    6.6838   11.2994 C   0  0  0  0  0  0  0  0  0  0  0  0
    1.7065    8.0373   11.9834 C   0  0  0  0  0  0  0  0  0  0  0  0
    2.9659    7.2275   11.8916 C   0  0  0  0  0  0  0  0  0  0  0  0
    0.9061    3.6946    7.6039 C   0  0  0  0  0  0  0  0  0  0  0  0
    2.2645    2.2717    4.2479 N   0  0  0  0  0  0  0  0  0  0  0  0
    2.7521    1.8896    3.0461 C   0  0  0  0  0  0  0  0  0  0  0  0
    3.0229   -0.1776   -1.1468 N   0  0  0  0  0  0  0  0  0  0  0  0
    2.6872   -0.7760   -2.3854 C   0  0  0  0  0  0  0  0  0  0  0  0
    1.4317   -1.3146   -2.6593 C   0  0  0  0  0  0  0  0  0  0  0  0
    1.1695   -1.9289   -3.8855 C   0  0  0  0  0  0  0  0  0  0  0  0
    2.1530   -2.0015   -4.8700 C   0  0  0  0  0  0  0  0  0  0  0  0
    1.7133   -2.8151   -6.3246 Cl  0  0  0  0  0  0  0  0  0  0  0  0
    3.4114   -1.4378   -4.6436 C   0  0  0  0  0  0  0  0  0  0  0  0
    4.5279   -1.4317   -5.6553 C   0  0  0  0  0  0  0  0  0  0  0  0
    4.3021   -2.0921   -6.8193 F   0  0  0  0  0  0  0  0  0  0  0  0
    4.8692   -0.1608   -6.0166 F   0  0  0  0  0  0  0  0  0  0  0  0
    5.6698   -1.9782   -5.1452 F   0  0  0  0  0  0  0  0  0  0  0  0
    3.6607   -0.8213   -3.3885 C   0  0  0  0  0  0  0  0  0  0  0  0
    3.6258    1.1395    0.7678 H   0  0  0  0  0  0  0  0  0  0  0  0
    0.5494   -0.5248    2.2000 H   0  0  0  0  0  0  0  0  0  0  0  0
   -0.4127    0.2036    4.3336 H   0  0  0  0  0  0  0  0  0  0  0  0
    0.6462    4.2856    4.2546 H   0  0  0  0  0  0  0  0  0  0  0  0
    1.1337    6.5603    5.1004 H   0  0  0  0  0  0  0  0  0  0  0  0
    1.2434    4.5698   10.0047 H   0  0  0  0  0  0  0  0  0  0  0  0
    1.1910    5.8924   11.8524 H   0  0  0  0  0  0  0  0  0  0  0  0
    1.2266    8.1329   12.9483 H   0  0  0  0  0  0  0  0  0  0  0  0
    1.6365    8.9292   11.3687 H   0  0  0  0  0  0  0  0  0  0  0  0
    3.3449    6.7766   12.8019 H   0  0  0  0  0  0  0  0  0  0  0  0
    3.7371    7.5811   11.2139 H   0  0  0  0  0  0  0  0  0  0  0  0
    0.8528    2.8953    8.3309 H   0  0  0  0  0  0  0  0  0  0  0  0
    3.6273    2.4501    2.7312 H   0  0  0  0  0  0  0  0  0  0  0  0
    3.9767    0.1367   -1.0398 H   0  0  0  0  0  0  0  0  0  0  0  0
    0.6166   -1.2913   -1.9438 H   0  0  0  0  0  0  0  0  0  0  0  0
    0.1816   -2.3544   -4.0524 H   0  0  0  0  0  0  0  0  0  0  0  0
    4.6416   -0.3788   -3.2143 H   0  0  0  0  0  0  0  0  0  0  0  0
  1  2  2  0  0  0  0
  2  3  1  0  0  0  0
  2 23  1  0  0  0  0
  3  4  1  0  0  0  0
  3 35  1  0  0  0  0
  4  5  1  0  0  0  0
  4 22  2  0  0  0  0
  5  6  2  0  0  0  0
  5 36  1  0  0  0  0
  6  7  1  0  0  0  0
  6 37  1  0  0  0  0
  7  8  1  0  0  0  0
  7 21  2  0  0  0  0
  8  9  1  0  0  0  0
  9 10  1  0  0  0  0
  9 20  2  0  0  0  0
 10 11  2  0  0  0  0
 10 38  1  0  0  0  0
 11 12  1  0  0  0  0
 11 39  1  0  0  0  0
 12 13  2  0  0  0  0
 13 14  1  0  0  0  0
 13 20  1  0  0  0  0
 14 15  1  0  0  0  0
 14 40  1  0  0  0  0
 15 16  2  0  0  0  0
 15 17  1  0  0  0  0
 17 18  1  0  0  0  0
 17 19  1  0  0  0  0
 17 41  1  0  0  0  0
 18 19  1  0  0  0  0
 18 42  1  0  0  0  0
 18 43  1  0  0  0  0
 19 44  1  0  0  0  0
 19 45  1  0  0  0  0
 20 46  1  0  0  0  0
 21 22  1  0  0  0  0
 22 47  1  0  0  0  0
 23 24  1  0  0  0  0
 23 48  1  0  0  0  0
 24 25  1  0  0  0  0
 24 34  2  0  0  0  0
 25 26  2  0  0  0  0
 25 49  1  0  0  0  0
 26 27  1  0  0  0  0
 26 50  1  0  0  0  0
 27 28  1  0  0  0  0
 27 29  2  0  0  0  0
 29 30  1  0  0  0  0
 29 34  1  0  0  0  0
 30 31  1  0  0  0  0
 30 32  1  0  0  0  0
 30 33  1  0  0  0  0
 34 51  1  0  0  0  0
M  END
$$$$
