CHEMBL3894418
 OpenBabel04072215373D

 70 74  0  0  1  0  0  0  0  0999 V2000
    2.9789   -1.3706    0.9933 C   0  0  0  0  0  0  0  0  0  0  0  0
    2.2770   -0.0297    0.7907 C   0  0  0  0  0  0  0  0  0  0  0  0
    3.1002    1.0262    0.0497 C   0  0  3  0  0  0  0  0  0  0  0  0
    2.4708    2.3951   -0.3599 C   0  0  0  0  0  0  0  0  0  0  0  0
    3.2030    3.1620   -1.0091 O   0  0  0  0  0  0  0  0  0  0  0  0
    1.1576    2.7864   -0.1398 N   0  0  0  0  0  0  0  0  0  0  0  0
    0.0335    2.1068    0.5130 C   0  0  0  0  0  0  0  0  0  0  0  0
   -1.0540    1.7448   -0.5123 C   0  0  0  0  0  0  0  0  0  0  0  0
   -1.4696    2.8863   -1.2792 O   0  0  0  0  0  0  0  0  0  0  0  0
   -0.3769    3.6069   -1.8996 C   0  0  3  0  0  0  0  0  0  0  0  0
    0.2990    2.8107   -3.0237 C   0  0  0  0  0  0  0  0  0  0  0  0
   -0.5922    2.5672   -4.1050 O   0  0  0  0  0  0  0  0  0  0  0  0
   -0.0238    2.1663   -5.2867 C   0  0  0  0  0  0  0  0  0  0  0  0
   -0.8740    2.3714   -6.3830 C   0  0  0  0  0  0  0  0  0  0  0  0
   -0.4932    2.1067   -7.6910 C   0  0  0  0  0  0  0  0  0  0  0  0
   -1.3592    2.3783   -8.6709 N   0  0  0  0  0  0  0  0  0  0  0  0
   -0.9580    2.1137   -9.9169 C   0  0  0  0  0  0  0  0  0  0  0  0
    0.2087    1.5745  -10.2689 N   0  0  0  0  0  0  0  0  0  0  0  0
    1.0726    1.2940   -9.2774 C   0  0  0  0  0  0  0  0  0  0  0  0
    2.3276    0.6903   -9.5820 N   0  0  0  0  0  0  0  0  0  0  0  0
    2.8670    0.3906  -10.8528 C   0  0  0  0  0  0  0  0  0  0  0  0
    2.5797    1.1452  -11.9945 C   0  0  0  0  0  0  0  0  0  0  0  0
    3.1276    0.8117  -13.2351 C   0  0  0  0  0  0  0  0  0  0  0  0
    4.0084   -0.2622  -13.3464 C   0  0  0  0  0  0  0  0  0  0  0  0
    4.6195   -0.6438  -14.9144 Cl  0  0  0  0  0  0  0  0  0  0  0  0
    4.3682   -0.9792  -12.2024 C   0  0  0  0  0  0  0  0  0  0  0  0
    5.4885   -2.2937  -12.2463 Cl  0  0  0  0  0  0  0  0  0  0  0  0
    3.8089   -0.6449  -10.9657 C   0  0  0  0  0  0  0  0  0  0  0  0
    0.7791    1.5769   -7.9283 C   0  0  0  0  0  0  0  0  0  0  0  0
    1.6525    1.3666   -6.8265 C   0  0  0  0  0  0  0  0  0  0  0  0
    1.2484    1.6339   -5.5152 C   0  0  0  0  0  0  0  0  0  0  0  0
    2.2127    1.4743   -4.5582 O   0  0  0  0  0  0  0  0  0  0  0  0
    2.0865    0.2663   -3.8087 C   0  0  0  0  0  0  0  0  0  0  0  0
    0.6756    3.9966   -0.8395 C   0  0  0  0  0  0  0  0  0  0  0  0
    4.4813    1.2272    0.6819 C   0  0  0  0  0  0  0  0  0  0  0  0
    5.6403    0.9429   -0.0646 C   0  0  0  0  0  0  0  0  0  0  0  0
    6.9051    1.1086    0.4907 C   0  0  0  0  0  0  0  0  0  0  0  0
    7.0359    1.5706    1.7996 C   0  0  0  0  0  0  0  0  0  0  0  0
    5.8967    1.8660    2.5480 C   0  0  0  0  0  0  0  0  0  0  0  0
    4.6249    1.6982    1.9943 C   0  0  0  0  0  0  0  0  0  0  0  0
    2.2337   -2.1712    1.0579 H   0  0  0  0  0  0  0  0  0  0  0  0
    3.5423   -1.3748    1.9320 H   0  0  0  0  0  0  0  0  0  0  0  0
    3.6608   -1.6115    0.1729 H   0  0  0  0  0  0  0  0  0  0  0  0
    1.9697    0.3365    1.7760 H   0  0  0  0  0  0  0  0  0  0  0  0
    1.3805   -0.2385    0.1958 H   0  0  0  0  0  0  0  0  0  0  0  0
    3.2899    0.5657   -0.9314 H   0  0  0  0  0  0  0  0  0  0  0  0
   -0.3830    2.8271    1.2271 H   0  0  0  0  0  0  0  0  0  0  0  0
    0.3116    1.2408    1.0937 H   0  0  0  0  0  0  0  0  0  0  0  0
   -1.9400    1.3671    0.0101 H   0  0  0  0  0  0  0  0  0  0  0  0
   -0.7238    0.9507   -1.1890 H   0  0  0  0  0  0  0  0  0  0  0  0
   -0.8213    4.5112   -2.3299 H   0  0  0  0  0  0  0  0  0  0  0  0
    0.5806    1.8440   -2.6211 H   0  0  0  0  0  0  0  0  0  0  0  0
    1.1771    3.3675   -3.3687 H   0  0  0  0  0  0  0  0  0  0  0  0
   -1.8657    2.7873   -6.2093 H   0  0  0  0  0  0  0  0  0  0  0  0
   -1.6451    2.3613  -10.7184 H   0  0  0  0  0  0  0  0  0  0  0  0
    2.4688   -0.0846   -8.9394 H   0  0  0  0  0  0  0  0  0  0  0  0
    1.9116    2.0025  -11.9384 H   0  0  0  0  0  0  0  0  0  0  0  0
    2.8495    1.3961  -14.1087 H   0  0  0  0  0  0  0  0  0  0  0  0
    4.1026   -1.2075  -10.0817 H   0  0  0  0  0  0  0  0  0  0  0  0
    2.6708    1.0244   -6.9927 H   0  0  0  0  0  0  0  0  0  0  0  0
    2.9644   -0.3621   -3.9788 H   0  0  0  0  0  0  0  0  0  0  0  0
    1.1708   -0.2964   -4.0143 H   0  0  0  0  0  0  0  0  0  0  0  0
    2.0992    0.5280   -2.7485 H   0  0  0  0  0  0  0  0  0  0  0  0
    0.2170    4.6405   -0.0800 H   0  0  0  0  0  0  0  0  0  0  0  0
    1.4849    4.5677   -1.3039 H   0  0  0  0  0  0  0  0  0  0  0  0
    5.5652    0.5895   -1.0899 H   0  0  0  0  0  0  0  0  0  0  0  0
    7.7958    0.8887   -0.0951 H   0  0  0  0  0  0  0  0  0  0  0  0
    8.0235    1.7104    2.2334 H   0  0  0  0  0  0  0  0  0  0  0  0
    6.0001    2.2329    3.5662 H   0  0  0  0  0  0  0  0  0  0  0  0
    3.7518    1.9421    2.5933 H   0  0  0  0  0  0  0  0  0  0  0  0
  1  2  1  0  0  0  0
  1 41  1  0  0  0  0
  1 42  1  0  0  0  0
  1 43  1  0  0  0  0
  2  3  1  0  0  0  0
  2 44  1  0  0  0  0
  2 45  1  0  0  0  0
  3  4  1  0  0  0  0
  3 35  1  0  0  0  0
  3 46  1  0  0  0  0
  4  5  2  0  0  0  0
  4  6  1  0  0  0  0
  6  7  1  0  0  0  0
  6 34  1  0  0  0  0
  7  8  1  0  0  0  0
  7 47  1  0  0  0  0
  7 48  1  0  0  0  0
  8  9  1  0  0  0  0
  8 49  1  0  0  0  0
  8 50  1  0  0  0  0
  9 10  1  0  0  0  0
 10 11  1  0  0  0  0
 10 34  1  0  0  0  0
 10 51  1  0  0  0  0
 11 12  1  0  0  0  0
 11 52  1  0  0  0  0
 11 53  1  0  0  0  0
 12 13  1  0  0  0  0
 13 14  1  0  0  0  0
 13 31  2  0  0  0  0
 14 15  2  0  0  0  0
 14 54  1  0  0  0  0
 15 16  1  0  0  0  0
 15 29  1  0  0  0  0
 16 17  2  0  0  0  0
 17 18  1  0  0  0  0
 17 55  1  0  0  0  0
 18 19  2  0  0  0  0
 19 20  1  0  0  0  0
 19 29  1  0  0  0  0
 20 21  1  0  0  0  0
 20 56  1  0  0  0  0
 21 22  1  0  0  0  0
 21 28  2  0  0  0  0
 22 23  2  0  0  0  0
 22 57  1  0  0  0  0
 23 24  1  0  0  0  0
 23 58  1  0  0  0  0
 24 25  1  0  0  0  0
 24 26  2  0  0  0  0
 26 27  1  0  0  0  0
 26 28  1  0  0  0  0
 28 59  1  0  0  0  0
 29 30  2  0  0  0  0
 30 31  1  0  0  0  0
 30 60  1  0  0  0  0
 31 32  1  0  0  0  0
 32 33  1  0  0  0  0
 33 61  1  0  0  0  0
 33 62  1  0  0  0  0
 33 63  1  0  0  0  0
 34 64  1  0  0  0  0
 34 65  1  0  0  0  0
 35 36  1  0  0  0  0
 35 40  2  0  0  0  0
 36 37  2  0  0  0  0
 36 66  1  0  0  0  0
 37 38  1  0  0  0  0
 37 67  1  0  0  0  0
 38 39  2  0  0  0  0
 38 68  1  0  0  0  0
 39 40  1  0  0  0  0
 39 69  1  0  0  0  0
 40 70  1  0  0  0  0
M  END
$$$$
