CHEMBL3941907
 OpenBabel04072215373D

 55 59  0  0  0  0  0  0  0  0999 V2000
    1.8915   -0.7992   -0.8032 O   0  0  0  0  0  0  0  0  0  0  0  0
    3.0075   -0.6237   -0.3223 C   0  0  0  0  0  0  0  0  0  0  0  0
    3.4540   -1.0965    0.9039 N   0  0  0  0  0  0  0  0  0  0  0  0
    2.6875   -1.9115    1.7731 C   0  0  0  0  0  0  0  0  0  0  0  0
    1.5393   -2.5904    1.3487 C   0  0  0  0  0  0  0  0  0  0  0  0
    0.7359   -3.2902    2.2465 C   0  0  0  0  0  0  0  0  0  0  0  0
    1.0927   -3.3540    3.5847 C   0  0  0  0  0  0  0  0  0  0  0  0
    2.2995   -2.7895    4.0056 C   0  0  0  0  0  0  0  0  0  0  0  0
    2.7644   -2.9461    5.4045 C   0  0  0  0  0  0  0  0  0  0  0  0
    3.4351   -2.0415    5.8973 O   0  0  0  0  0  0  0  0  0  0  0  0
    2.4750   -4.1717    6.2157 C   0  0  0  0  0  0  0  0  0  0  0  0
    2.1371   -5.4188    5.6544 C   0  0  0  0  0  0  0  0  0  0  0  0
    1.8482   -6.5444    6.4595 C   0  0  0  0  0  0  0  0  0  0  0  0
    2.1043   -6.4449    7.8382 C   0  0  0  0  0  0  0  0  0  0  0  0
    2.0717   -7.2485    9.0318 C   0  0  0  0  0  0  0  0  0  0  0  0
    0.9769   -7.3591    9.9954 C   0  0  0  0  0  0  0  0  0  0  0  0
   -0.0792   -6.5238   10.0126 C   0  0  0  0  0  0  0  0  0  0  0  0
   -0.5385   -5.8533   11.2537 C   0  0  0  0  0  0  0  0  0  0  0  0
    0.3858   -5.3768   12.2051 C   0  0  0  0  0  0  0  0  0  0  0  0
   -0.0101   -4.5057   13.2272 C   0  0  0  0  0  0  0  0  0  0  0  0
   -1.3367   -4.0977   13.3147 C   0  0  0  0  0  0  0  0  0  0  0  0
   -2.2678   -4.5758   12.3918 C   0  0  0  0  0  0  0  0  0  0  0  0
   -1.8705   -5.4430   11.3655 C   0  0  0  0  0  0  0  0  0  0  0  0
    3.2456   -6.9936    9.6528 N   0  0  0  0  0  0  0  0  0  0  0  0
    3.3645   -5.6710    9.4214 N   0  0  0  0  0  0  0  0  0  0  0  0
    2.7096   -5.2746    8.2892 C   0  0  0  0  0  0  0  0  0  0  0  0
    2.7207   -4.0735    7.5885 C   0  0  0  0  0  0  0  0  0  0  0  0
    3.0840   -2.0428    3.1074 C   0  0  0  0  0  0  0  0  0  0  0  0
    3.9451    0.2167   -1.1062 C   0  0  0  0  0  0  0  0  0  0  0  0
    3.3931    1.2392   -1.8926 C   0  0  0  0  0  0  0  0  0  0  0  0
    4.2054    1.9922   -2.7401 C   0  0  0  0  0  0  0  0  0  0  0  0
    5.5674    1.7222   -2.8055 C   0  0  0  0  0  0  0  0  0  0  0  0
    6.1240    0.7101   -2.0189 C   0  0  0  0  0  0  0  0  0  0  0  0
    5.3148   -0.0532   -1.1677 C   0  0  0  0  0  0  0  0  0  0  0  0
    4.3042   -0.6946    1.2814 H   0  0  0  0  0  0  0  0  0  0  0  0
    1.2298   -2.5868    0.3079 H   0  0  0  0  0  0  0  0  0  0  0  0
   -0.1706   -3.7745    1.8942 H   0  0  0  0  0  0  0  0  0  0  0  0
    0.4264   -3.8602    4.2775 H   0  0  0  0  0  0  0  0  0  0  0  0
    2.1301   -5.5557    4.5748 H   0  0  0  0  0  0  0  0  0  0  0  0
    1.5848   -7.4937    6.0000 H   0  0  0  0  0  0  0  0  0  0  0  0
    1.2980   -7.8036   10.9398 H   0  0  0  0  0  0  0  0  0  0  0  0
   -0.4103   -6.0258    9.1054 H   0  0  0  0  0  0  0  0  0  0  0  0
    1.4421   -5.6275   12.1313 H   0  0  0  0  0  0  0  0  0  0  0  0
    0.7239   -4.1178   13.9301 H   0  0  0  0  0  0  0  0  0  0  0  0
   -1.6434   -3.3965   14.0869 H   0  0  0  0  0  0  0  0  0  0  0  0
   -3.3006   -4.2418   12.4482 H   0  0  0  0  0  0  0  0  0  0  0  0
   -2.6056   -5.7618   10.6316 H   0  0  0  0  0  0  0  0  0  0  0  0
    4.0195   -5.1295    9.9808 H   0  0  0  0  0  0  0  0  0  0  0  0
    3.0662   -3.1506    8.0440 H   0  0  0  0  0  0  0  0  0  0  0  0
    3.9860   -1.5535    3.4718 H   0  0  0  0  0  0  0  0  0  0  0  0
    2.3242    1.4393   -1.8659 H   0  0  0  0  0  0  0  0  0  0  0  0
    3.7634    2.7687   -3.3558 H   0  0  0  0  0  0  0  0  0  0  0  0
    6.1959    2.2951   -3.4838 H   0  0  0  0  0  0  0  0  0  0  0  0
    7.1838    0.4894   -2.1036 H   0  0  0  0  0  0  0  0  0  0  0  0
    5.7557   -0.8718   -0.6090 H   0  0  0  0  0  0  0  0  0  0  0  0
  1  2  2  0  0  0  0
  2  3  1  0  0  0  0
  2 29  1  0  0  0  0
  3  4  1  0  0  0  0
  3 35  1  0  0  0  0
  4  5  1  0  0  0  0
  4 28  2  0  0  0  0
  5  6  2  0  0  0  0
  5 36  1  0  0  0  0
  6  7  1  0  0  0  0
  6 37  1  0  0  0  0
  7  8  2  0  0  0  0
  7 38  1  0  0  0  0
  8  9  1  0  0  0  0
  8 28  1  0  0  0  0
  9 10  2  0  0  0  0
  9 11  1  0  0  0  0
 11 12  1  0  0  0  0
 11 27  2  0  0  0  0
 12 13  2  0  0  0  0
 12 39  1  0  0  0  0
 13 14  1  0  0  0  0
 13 40  1  0  0  0  0
 14 15  1  0  0  0  0
 14 26  2  0  0  0  0
 15 16  1  0  0  0  0
 15 24  2  0  0  0  0
 16 17  2  0  0  0  0
 16 41  1  0  0  0  0
 17 18  1  0  0  0  0
 17 42  1  0  0  0  0
 18 19  1  0  0  0  0
 18 23  2  0  0  0  0
 19 20  2  0  0  0  0
 19 43  1  0  0  0  0
 20 21  1  0  0  0  0
 20 44  1  0  0  0  0
 21 22  2  0  0  0  0
 21 45  1  0  0  0  0
 22 23  1  0  0  0  0
 22 46  1  0  0  0  0
 23 47  1  0  0  0  0
 24 25  1  0  0  0  0
 25 26  1  0  0  0  0
 25 48  1  0  0  0  0
 26 27  1  0  0  0  0
 27 49  1  0  0  0  0
 28 50  1  0  0  0  0
 29 30  1  0  0  0  0
 29 34  2  0  0  0  0
 30 31  2  0  0  0  0
 30 51  1  0  0  0  0
 31 32  1  0  0  0  0
 31 52  1  0  0  0  0
 32 33  2  0  0  0  0
 32 53  1  0  0  0  0
 33 34  1  0  0  0  0
 33 54  1  0  0  0  0
 34 55  1  0  0  0  0
M  END
$$$$
