CHEMBL4213003
 OpenBabel04072215383D

 57 61  0  0  0  0  0  0  0  0999 V2000
    1.2804   -0.3346   -0.1055 C   0  0  0  0  0  0  0  0  0  0  0  0
    2.7039   -0.0733   -0.0430 N   0  0  0  0  0  0  0  0  0  0  0  0
    3.3021   -0.4527    1.1524 C   0  0  0  0  0  0  0  0  0  0  0  0
    2.7681   -1.4890    1.8262 N   0  0  0  0  0  0  0  0  0  0  0  0
    3.3487   -1.9067    2.9644 C   0  0  0  0  0  0  0  0  0  0  0  0
    4.5002   -1.2809    3.4113 C   0  0  0  0  0  0  0  0  0  0  0  0
    5.4251   -1.4226    4.4795 C   0  0  0  0  0  0  0  0  0  0  0  0
    5.4244   -2.4549    5.5075 C   0  0  0  0  0  0  0  0  0  0  0  0
    4.9343   -3.7288    5.2646 C   0  0  0  0  0  0  0  0  0  0  0  0
    4.8964   -4.6706    6.2912 C   0  0  0  0  0  0  0  0  0  0  0  0
    5.3707   -4.3490    7.5612 C   0  0  0  0  0  0  0  0  0  0  0  0
    5.3721   -5.2854    8.5711 N   0  0  0  0  0  0  0  0  0  0  0  0
    4.3423   -6.3205    8.6875 C   0  0  0  0  0  0  0  0  0  0  0  0
    3.5778   -6.1965   10.0249 C   0  0  0  0  0  0  0  0  0  0  0  0
    4.4567   -6.1442   11.2093 N   0  0  0  0  0  0  0  0  0  0  0  0
    5.3960   -5.0115   11.0415 C   0  0  0  0  0  0  0  0  0  0  0  0
    6.2279   -5.0823    9.7440 C   0  0  0  0  0  0  0  0  0  0  0  0
    5.8872   -3.1224    7.7962 N   0  0  0  0  0  0  0  0  0  0  0  0
    5.9047   -2.2099    6.7872 C   0  0  0  0  0  0  0  0  0  0  0  0
    6.3511   -0.4505    4.4422 N   0  0  0  0  0  0  0  0  0  0  0  0
    6.0309    0.2776    3.3422 N   0  0  0  0  0  0  0  0  0  0  0  0
    6.8616    1.4115    2.9844 C   0  0  0  0  0  0  0  0  0  0  0  0
    6.3956    2.7452    3.5832 C   0  0  0  0  0  0  0  0  0  0  0  0
    7.3412    3.8922    3.2115 C   0  0  0  0  0  0  0  0  0  0  0  0
    7.2427    4.9141    4.3397 C   0  0  0  0  0  0  0  0  0  0  0  0
    6.4949    4.2469    5.4829 C   0  0  0  0  0  0  0  0  0  0  0  0
    6.3725    2.7750    5.1123 C   0  0  0  0  0  0  0  0  0  0  0  0
    4.9383   -0.2023    2.6695 C   0  0  0  0  0  0  0  0  0  0  0  0
    4.3787    0.2623    1.5349 N   0  0  0  0  0  0  0  0  0  0  0  0
    0.8930   -0.0050   -1.0748 H   0  0  0  0  0  0  0  0  0  0  0  0
    0.7404    0.2127    0.6757 H   0  0  0  0  0  0  0  0  0  0  0  0
    1.0514   -1.4032   -0.0189 H   0  0  0  0  0  0  0  0  0  0  0  0
    2.9906    0.8785   -0.2335 H   0  0  0  0  0  0  0  0  0  0  0  0
    2.8641   -2.7319    3.4700 H   0  0  0  0  0  0  0  0  0  0  0  0
    4.5981   -4.0359    4.2794 H   0  0  0  0  0  0  0  0  0  0  0  0
    4.5345   -5.6652    6.0642 H   0  0  0  0  0  0  0  0  0  0  0  0
    4.8316   -7.3007    8.6327 H   0  0  0  0  0  0  0  0  0  0  0  0
    3.6010   -6.2869    7.8830 H   0  0  0  0  0  0  0  0  0  0  0  0
    2.9029   -7.0537   10.1279 H   0  0  0  0  0  0  0  0  0  0  0  0
    2.9449   -5.3002   10.0071 H   0  0  0  0  0  0  0  0  0  0  0  0
    5.0065   -7.0031   11.2311 H   0  0  0  0  0  0  0  0  0  0  0  0
    6.0777   -5.0026   11.8993 H   0  0  0  0  0  0  0  0  0  0  0  0
    4.8335   -4.0707   11.0737 H   0  0  0  0  0  0  0  0  0  0  0  0
    6.9116   -5.9386    9.8049 H   0  0  0  0  0  0  0  0  0  0  0  0
    6.8659   -4.1939    9.6765 H   0  0  0  0  0  0  0  0  0  0  0  0
    6.3252   -1.2447    7.0563 H   0  0  0  0  0  0  0  0  0  0  0  0
    6.8855    1.4704    1.8889 H   0  0  0  0  0  0  0  0  0  0  0  0
    7.8831    1.1751    3.3091 H   0  0  0  0  0  0  0  0  0  0  0  0
    5.3897    2.9816    3.2137 H   0  0  0  0  0  0  0  0  0  0  0  0
    7.0666    4.3367    2.2497 H   0  0  0  0  0  0  0  0  0  0  0  0
    8.3790    3.5458    3.1239 H   0  0  0  0  0  0  0  0  0  0  0  0
    6.7153    5.8177    4.0106 H   0  0  0  0  0  0  0  0  0  0  0  0
    8.2451    5.2262    4.6548 H   0  0  0  0  0  0  0  0  0  0  0  0
    5.5014    4.6990    5.5913 H   0  0  0  0  0  0  0  0  0  0  0  0
    7.0144    4.3766    6.4373 H   0  0  0  0  0  0  0  0  0  0  0  0
    5.4441    2.3493    5.5092 H   0  0  0  0  0  0  0  0  0  0  0  0
    7.2101    2.2129    5.5392 H   0  0  0  0  0  0  0  0  0  0  0  0
  1  2  1  0  0  0  0
  1 30  1  0  0  0  0
  1 31  1  0  0  0  0
  1 32  1  0  0  0  0
  2  3  1  0  0  0  0
  2 33  1  0  0  0  0
  3  4  1  0  0  0  0
  3 29  2  0  0  0  0
  4  5  2  0  0  0  0
  5  6  1  0  0  0  0
  5 34  1  0  0  0  0
  6  7  1  0  0  0  0
  6 28  2  0  0  0  0
  7  8  1  0  0  0  0
  7 20  2  0  0  0  0
  8  9  1  0  0  0  0
  8 19  2  0  0  0  0
  9 10  2  0  0  0  0
  9 35  1  0  0  0  0
 10 11  1  0  0  0  0
 10 36  1  0  0  0  0
 11 12  1  0  0  0  0
 11 18  2  0  0  0  0
 12 13  1  0  0  0  0
 12 17  1  0  0  0  0
 13 14  1  0  0  0  0
 13 37  1  0  0  0  0
 13 38  1  0  0  0  0
 14 15  1  0  0  0  0
 14 39  1  0  0  0  0
 14 40  1  0  0  0  0
 15 16  1  0  0  0  0
 15 41  1  0  0  0  0
 16 17  1  0  0  0  0
 16 42  1  0  0  0  0
 16 43  1  0  0  0  0
 17 44  1  0  0  0  0
 17 45  1  0  0  0  0
 18 19  1  0  0  0  0
 19 46  1  0  0  0  0
 20 21  1  0  0  0  0
 21 22  1  0  0  0  0
 21 28  1  0  0  0  0
 22 23  1  0  0  0  0
 22 47  1  0  0  0  0
 22 48  1  0  0  0  0
 23 24  1  0  0  0  0
 23 27  1  0  0  0  0
 23 49  1  0  0  0  0
 24 25  1  0  0  0  0
 24 50  1  0  0  0  0
 24 51  1  0  0  0  0
 25 26  1  0  0  0  0
 25 52  1  0  0  0  0
 25 53  1  0  0  0  0
 26 27  1  0  0  0  0
 26 54  1  0  0  0  0
 26 55  1  0  0  0  0
 27 56  1  0  0  0  0
 27 57  1  0  0  0  0
 28 29  1  0  0  0  0
M  END
$$$$
