CHEMBL2016902
 OpenBabel04072215363D

 45 49  0  0  0  0  0  0  0  0999 V2000
    2.7121   -0.4309    0.8747 O   0  0  0  0  0  0  0  0  0  0  0  0
    2.2997    0.2228   -0.0875 C   0  0  0  0  0  0  0  0  0  0  0  0
    0.8998    0.7973    0.0486 C   0  0  0  0  0  0  0  0  0  0  0  0
    0.4673    1.9992   -0.5112 C   0  0  0  0  0  0  0  0  0  0  0  0
   -0.8834    2.3047   -0.4937 C   0  0  0  0  0  0  0  0  0  0  0  0
   -1.8044    1.5642    0.1460 N   0  0  0  0  0  0  0  0  0  0  0  0
   -1.3521    0.4768    0.8037 C   0  0  0  0  0  0  0  0  0  0  0  0
   -0.0330    0.0502    0.7741 C   0  0  0  0  0  0  0  0  0  0  0  0
    3.0121    0.3049   -1.3033 N   0  0  0  0  0  0  0  0  0  0  0  0
    2.4548    0.9952   -2.4883 C   0  0  0  0  0  0  0  0  0  0  0  0
    3.2671    1.1439   -3.7723 C   0  0  0  0  0  0  0  0  0  0  0  0
    4.3729    0.2015   -3.8087 C   0  0  0  0  0  0  0  0  0  0  0  0
    5.1808    0.0311   -4.8840 N   0  0  0  0  0  0  0  0  0  0  0  0
    6.0576   -0.8879   -4.5212 C   0  0  0  0  0  0  0  0  0  0  0  0
    7.1626   -1.4062   -5.2643 C   0  0  0  0  0  0  0  0  0  0  0  0
    7.2768   -1.0364   -6.5515 C   0  0  0  0  0  0  0  0  0  0  0  0
    8.5567   -1.2029   -7.2392 C   0  0  0  0  0  0  0  0  0  0  0  0
    8.7601   -0.6604   -8.4918 C   0  0  0  0  0  0  0  0  0  0  0  0
    8.0973   -1.1798   -9.5375 F   0  0  0  0  0  0  0  0  0  0  0  0
    9.9368    0.0121   -8.7452 C   0  0  0  0  0  0  0  0  0  0  0  0
   11.0564   -0.3136   -7.9831 C   0  0  0  0  0  0  0  0  0  0  0  0
   10.9431   -1.2207   -6.9280 C   0  0  0  0  0  0  0  0  0  0  0  0
    9.6619   -1.5536   -6.4741 C   0  0  0  0  0  0  0  0  0  0  0  0
    9.4871   -2.1696   -5.2523 N   0  0  0  0  0  0  0  0  0  0  0  0
    8.2696   -2.1725   -4.6054 C   0  0  0  0  0  0  0  0  0  0  0  0
    8.1106   -2.7020   -3.5148 O   0  0  0  0  0  0  0  0  0  0  0  0
    5.8286   -1.2847   -3.2155 N   0  0  0  0  0  0  0  0  0  0  0  0
    4.7308   -0.6025   -2.7642 C   0  0  0  0  0  0  0  0  0  0  0  0
    4.0533   -0.7336   -1.4586 C   0  0  0  0  0  0  0  0  0  0  0  0
    1.1310    2.7194   -0.9609 H   0  0  0  0  0  0  0  0  0  0  0  0
   -1.2636    3.1804   -1.0142 H   0  0  0  0  0  0  0  0  0  0  0  0
   -2.1075   -0.0661    1.3645 H   0  0  0  0  0  0  0  0  0  0  0  0
    0.2540   -0.8536    1.3028 H   0  0  0  0  0  0  0  0  0  0  0  0
    2.3118    2.0287   -2.1849 H   0  0  0  0  0  0  0  0  0  0  0  0
    1.4773    0.5529   -2.7097 H   0  0  0  0  0  0  0  0  0  0  0  0
    3.6642    2.1651   -3.8376 H   0  0  0  0  0  0  0  0  0  0  0  0
    2.6083    1.0123   -4.6369 H   0  0  0  0  0  0  0  0  0  0  0  0
    6.5378   -0.3870   -7.0197 H   0  0  0  0  0  0  0  0  0  0  0  0
    9.9792    0.7246   -9.5604 H   0  0  0  0  0  0  0  0  0  0  0  0
   12.0175    0.1282   -8.2281 H   0  0  0  0  0  0  0  0  0  0  0  0
   11.8301   -1.5336   -6.3836 H   0  0  0  0  0  0  0  0  0  0  0  0
   10.2552   -2.5884   -4.7437 H   0  0  0  0  0  0  0  0  0  0  0  0
    6.3929   -1.9614   -2.7119 H   0  0  0  0  0  0  0  0  0  0  0  0
    4.7599   -0.6586   -0.6276 H   0  0  0  0  0  0  0  0  0  0  0  0
    3.5584   -1.7092   -1.4031 H   0  0  0  0  0  0  0  0  0  0  0  0
  1  2  2  0  0  0  0
  2  3  1  0  0  0  0
  2  9  1  0  0  0  0
  3  4  1  0  0  0  0
  3  8  2  0  0  0  0
  4  5  2  0  0  0  0
  4 30  1  0  0  0  0
  5  6  1  0  0  0  0
  5 31  1  0  0  0  0
  6  7  2  0  0  0  0
  7  8  1  0  0  0  0
  7 32  1  0  0  0  0
  8 33  1  0  0  0  0
  9 10  1  0  0  0  0
  9 29  1  0  0  0  0
 10 11  1  0  0  0  0
 10 34  1  0  0  0  0
 10 35  1  0  0  0  0
 11 12  1  0  0  0  0
 11 36  1  0  0  0  0
 11 37  1  0  0  0  0
 12 13  1  0  0  0  0
 12 28  2  0  0  0  0
 13 14  2  0  0  0  0
 14 15  1  0  0  0  0
 14 27  1  0  0  0  0
 15 16  2  0  0  0  0
 15 25  1  0  0  0  0
 16 17  1  0  0  0  0
 16 38  1  0  0  0  0
 17 18  1  0  0  0  0
 17 23  2  0  0  0  0
 18 19  1  0  0  0  0
 18 20  2  0  0  0  0
 20 21  1  0  0  0  0
 20 39  1  0  0  0  0
 21 22  2  0  0  0  0
 21 40  1  0  0  0  0
 22 23  1  0  0  0  0
 22 41  1  0  0  0  0
 23 24  1  0  0  0  0
 24 25  1  0  0  0  0
 24 42  1  0  0  0  0
 25 26  2  0  0  0  0
 27 28  1  0  0  0  0
 27 43  1  0  0  0  0
 28 29  1  0  0  0  0
 29 44  1  0  0  0  0
 29 45  1  0  0  0  0
M  END
$$$$
