CHEMBL2153823
 OpenBabel04072215363D

 60 62  0  0  0  0  0  0  0  0999 V2000
    4.8291    1.4002    0.3081 C   0  0  0  0  0  0  0  0  0  0  0  0
    4.4878   -0.0428   -0.0535 C   0  0  0  0  0  0  0  0  0  0  0  0
    4.9071   -1.0422    0.9449 N   0  0  0  0  0  0  0  0  0  0  0  0
    4.3900   -0.7718    2.3036 C   0  0  0  0  0  0  0  0  0  0  0  0
    2.8742   -0.8433    2.4961 C   0  0  0  0  0  0  0  0  0  0  0  0
    4.5602   -2.4183    0.5161 C   0  0  0  0  0  0  0  0  0  0  0  0
    5.1683   -2.9032   -0.8174 C   0  0  0  0  0  0  0  0  0  0  0  0
    6.6185   -2.9475   -0.8213 N   0  0  0  0  0  0  0  0  0  0  0  0
    7.2891   -3.8051   -1.6741 C   0  0  0  0  0  0  0  0  0  0  0  0
    6.6834   -4.5739   -2.4167 O   0  0  0  0  0  0  0  0  0  0  0  0
    8.7608   -3.7406   -1.6613 C   0  0  0  0  0  0  0  0  0  0  0  0
    9.6075   -3.3491   -0.6252 C   0  0  0  0  0  0  0  0  0  0  0  0
    9.3702   -2.8950    0.7720 C   0  0  0  0  0  0  0  0  0  0  0  0
   10.9050   -3.4843   -1.0716 N   0  0  0  0  0  0  0  0  0  0  0  0
   10.9358   -4.0113   -2.3354 C   0  0  0  0  0  0  0  0  0  0  0  0
   12.1994   -4.2960   -2.9144 C   0  0  0  0  0  0  0  0  0  0  0  0
   12.8850   -3.4189   -3.6643 C   0  0  0  0  0  0  0  0  0  0  0  0
   12.4630   -2.0079   -4.0157 C   0  0  0  0  0  0  0  0  0  0  0  0
   11.4416   -1.4150   -3.7320 O   0  0  0  0  0  0  0  0  0  0  0  0
   13.5213   -1.4918   -4.7426 N   0  0  0  0  0  0  0  0  0  0  0  0
   14.5444   -2.4194   -4.8953 C   0  0  0  0  0  0  0  0  0  0  0  0
   15.7325   -2.2126   -5.5583 C   0  0  0  0  0  0  0  0  0  0  0  0
   16.6221   -3.2834   -5.6119 C   0  0  0  0  0  0  0  0  0  0  0  0
   16.3163   -4.5216   -5.0139 C   0  0  0  0  0  0  0  0  0  0  0  0
   17.3000   -5.4596   -5.1811 O   0  0  0  0  0  0  0  0  0  0  0  0
   17.0726   -6.7564   -4.6504 C   0  0  0  0  0  0  0  0  0  0  0  0
   15.0981   -4.7041   -4.3338 C   0  0  0  0  0  0  0  0  0  0  0  0
   14.2133   -3.6317   -4.2752 C   0  0  0  0  0  0  0  0  0  0  0  0
    9.6238   -4.1753   -2.7451 C   0  0  0  0  0  0  0  0  0  0  0  0
    9.1668   -4.7040   -4.0627 C   0  0  0  0  0  0  0  0  0  0  0  0
    4.7113    2.0387   -0.5740 H   0  0  0  0  0  0  0  0  0  0  0  0
    5.8659    1.4915    0.6481 H   0  0  0  0  0  0  0  0  0  0  0  0
    4.1666    1.7912    1.0863 H   0  0  0  0  0  0  0  0  0  0  0  0
    5.0130   -0.2421   -0.9931 H   0  0  0  0  0  0  0  0  0  0  0  0
    3.4153   -0.1176   -0.2669 H   0  0  0  0  0  0  0  0  0  0  0  0
    4.7409    0.2105    2.6405 H   0  0  0  0  0  0  0  0  0  0  0  0
    4.8561   -1.4774    3.0041 H   0  0  0  0  0  0  0  0  0  0  0  0
    2.3280   -0.2879    1.7288 H   0  0  0  0  0  0  0  0  0  0  0  0
    2.6016   -0.4112    3.4654 H   0  0  0  0  0  0  0  0  0  0  0  0
    2.5213   -1.8797    2.4908 H   0  0  0  0  0  0  0  0  0  0  0  0
    3.4709   -2.5222    0.4358 H   0  0  0  0  0  0  0  0  0  0  0  0
    4.8930   -3.1166    1.2955 H   0  0  0  0  0  0  0  0  0  0  0  0
    4.8513   -2.2791   -1.6592 H   0  0  0  0  0  0  0  0  0  0  0  0
    4.7849   -3.9103   -1.0186 H   0  0  0  0  0  0  0  0  0  0  0  0
    7.1151   -2.1401   -0.4688 H   0  0  0  0  0  0  0  0  0  0  0  0
    8.3208   -2.9412    1.0662 H   0  0  0  0  0  0  0  0  0  0  0  0
    9.7164   -1.8643    0.9002 H   0  0  0  0  0  0  0  0  0  0  0  0
    9.9212   -3.5313    1.4729 H   0  0  0  0  0  0  0  0  0  0  0  0
   11.7238   -3.2557   -0.5250 H   0  0  0  0  0  0  0  0  0  0  0  0
   12.6066   -5.2851   -2.7250 H   0  0  0  0  0  0  0  0  0  0  0  0
   13.5172   -0.5520   -5.1059 H   0  0  0  0  0  0  0  0  0  0  0  0
   15.9741   -1.2641   -6.0211 H   0  0  0  0  0  0  0  0  0  0  0  0
   17.5745   -3.1627   -6.1262 H   0  0  0  0  0  0  0  0  0  0  0  0
   17.9353   -7.3770   -4.9148 H   0  0  0  0  0  0  0  0  0  0  0  0
   16.1842   -7.2172   -5.0930 H   0  0  0  0  0  0  0  0  0  0  0  0
   17.0053   -6.7254   -3.5588 H   0  0  0  0  0  0  0  0  0  0  0  0
   14.8407   -5.6443   -3.8670 H   0  0  0  0  0  0  0  0  0  0  0  0
   10.0098   -4.9355   -4.7212 H   0  0  0  0  0  0  0  0  0  0  0  0
    8.5387   -3.9661   -4.5722 H   0  0  0  0  0  0  0  0  0  0  0  0
    8.5902   -5.6244   -3.9280 H   0  0  0  0  0  0  0  0  0  0  0  0
  1  2  1  0  0  0  0
  1 31  1  0  0  0  0
  1 32  1  0  0  0  0
  1 33  1  0  0  0  0
  2  3  1  0  0  0  0
  2 34  1  0  0  0  0
  2 35  1  0  0  0  0
  3  4  1  0  0  0  0
  3  6  1  0  0  0  0
  4  5  1  0  0  0  0
  4 36  1  0  0  0  0
  4 37  1  0  0  0  0
  5 38  1  0  0  0  0
  5 39  1  0  0  0  0
  5 40  1  0  0  0  0
  6  7  1  0  0  0  0
  6 41  1  0  0  0  0
  6 42  1  0  0  0  0
  7  8  1  0  0  0  0
  7 43  1  0  0  0  0
  7 44  1  0  0  0  0
  8  9  1  0  0  0  0
  8 45  1  0  0  0  0
  9 10  2  0  0  0  0
  9 11  1  0  0  0  0
 11 12  2  0  0  0  0
 11 29  1  0  0  0  0
 12 13  1  0  0  0  0
 12 14  1  0  0  0  0
 13 46  1  0  0  0  0
 13 47  1  0  0  0  0
 13 48  1  0  0  0  0
 14 15  1  0  0  0  0
 14 49  1  0  0  0  0
 15 16  1  0  0  0  0
 15 29  2  0  0  0  0
 16 17  2  0  0  0  0
 16 50  1  0  0  0  0
 17 18  1  0  0  0  0
 17 28  1  0  0  0  0
 18 19  2  0  0  0  0
 18 20  1  0  0  0  0
 20 21  1  0  0  0  0
 20 51  1  0  0  0  0
 21 22  1  0  0  0  0
 21 28  2  0  0  0  0
 22 23  2  0  0  0  0
 22 52  1  0  0  0  0
 23 24  1  0  0  0  0
 23 53  1  0  0  0  0
 24 25  1  0  0  0  0
 24 27  2  0  0  0  0
 25 26  1  0  0  0  0
 26 54  1  0  0  0  0
 26 55  1  0  0  0  0
 26 56  1  0  0  0  0
 27 28  1  0  0  0  0
 27 57  1  0  0  0  0
 29 30  1  0  0  0  0
 30 58  1  0  0  0  0
 30 59  1  0  0  0  0
 30 60  1  0  0  0  0
M  END
$$$$
