CHEMBL3656048
 OpenBabel04072215373D

 47 50  0  0  0  0  0  0  0  0999 V2000
   -2.0895   -0.6304   -0.3555 C   0  0  0  0  0  0  0  0  0  0  0  0
   -0.7238   -0.2497    0.1309 C   0  0  0  0  0  0  0  0  0  0  0  0
   -0.4032    1.0777    0.5718 C   0  0  0  0  0  0  0  0  0  0  0  0
    0.9044    1.2042    0.9709 C   0  0  0  0  0  0  0  0  0  0  0  0
    1.7592   -0.2604    0.8234 S   0  0  0  0  0  0  0  0  0  0  0  0
    0.3820   -1.0963    0.2207 C   0  0  0  0  0  0  0  0  0  0  0  0
    0.4606   -2.5192   -0.1383 C   0  0  0  0  0  0  0  0  0  0  0  0
   -0.5025   -3.1010   -0.6328 O   0  0  0  0  0  0  0  0  0  0  0  0
    1.6704   -3.1466    0.1628 N   0  0  0  0  0  0  0  0  0  0  0  0
    2.0028   -4.5023   -0.0647 C   0  0  0  0  0  0  0  0  0  0  0  0
    1.2459   -5.3318   -0.8955 C   0  0  0  0  0  0  0  0  0  0  0  0
    1.5313   -6.6919   -0.9998 C   0  0  0  0  0  0  0  0  0  0  0  0
    2.5969   -7.2341   -0.2920 C   0  0  0  0  0  0  0  0  0  0  0  0
    3.4514   -6.4008    0.4334 C   0  0  0  0  0  0  0  0  0  0  0  0
    4.5860   -6.8508    1.0827 O   0  0  0  0  0  0  0  0  0  0  0  0
    5.2687   -7.9439    0.5833 C   0  0  0  0  0  0  0  0  0  0  0  0
    5.4154   -8.2148   -0.7747 C   0  0  0  0  0  0  0  0  0  0  0  0
    6.0679   -9.3786   -1.1423 C   0  0  0  0  0  0  0  0  0  0  0  0
    6.6213  -10.2386   -0.2642 N   0  0  0  0  0  0  0  0  0  0  0  0
    6.5313   -9.9187    1.0503 C   0  0  0  0  0  0  0  0  0  0  0  0
    7.1700  -10.8851    1.9406 C   0  0  0  0  0  0  0  0  0  0  0  0
    7.3308  -10.9230    3.3126 C   0  0  0  0  0  0  0  0  0  0  0  0
    8.0206  -12.1223    3.6697 C   0  0  0  0  0  0  0  0  0  0  0  0
    8.4213  -12.6375    4.9792 C   0  0  0  0  0  0  0  0  0  0  0  0
    9.0280  -13.6862    5.1384 O   0  0  0  0  0  0  0  0  0  0  0  0
    8.0632  -11.8622    6.0350 O   0  0  0  0  0  0  0  0  0  0  0  0
    8.2709  -12.7759    2.4734 C   0  0  0  0  0  0  0  0  0  0  0  0
    7.7645  -12.0271    1.4471 N   0  0  0  0  0  0  0  0  0  0  0  0
    5.8714   -8.7858    1.5137 C   0  0  0  0  0  0  0  0  0  0  0  0
    3.1366   -5.0391    0.5713 C   0  0  0  0  0  0  0  0  0  0  0  0
   -2.7877    0.2093   -0.2561 H   0  0  0  0  0  0  0  0  0  0  0  0
   -2.4959   -1.4636    0.2262 H   0  0  0  0  0  0  0  0  0  0  0  0
   -2.0604   -0.9110   -1.4132 H   0  0  0  0  0  0  0  0  0  0  0  0
   -1.1084    1.9012    0.5914 H   0  0  0  0  0  0  0  0  0  0  0  0
    1.3979    2.0921    1.3423 H   0  0  0  0  0  0  0  0  0  0  0  0
    2.3307   -2.5925    0.6937 H   0  0  0  0  0  0  0  0  0  0  0  0
    0.4156   -4.9493   -1.4802 H   0  0  0  0  0  0  0  0  0  0  0  0
    0.9134   -7.3247   -1.6304 H   0  0  0  0  0  0  0  0  0  0  0  0
    2.7595   -8.3067   -0.3448 H   0  0  0  0  0  0  0  0  0  0  0  0
    5.0056   -7.5650   -1.5385 H   0  0  0  0  0  0  0  0  0  0  0  0
    6.1529   -9.6605   -2.1881 H   0  0  0  0  0  0  0  0  0  0  0  0
    6.9703  -10.1543    3.9859 H   0  0  0  0  0  0  0  0  0  0  0  0
    7.5765  -11.0626    5.7779 H   0  0  0  0  0  0  0  0  0  0  0  0
    8.7710  -13.7172    2.2775 H   0  0  0  0  0  0  0  0  0  0  0  0
    7.7983  -12.2545    0.4587 H   0  0  0  0  0  0  0  0  0  0  0  0
    5.8094   -8.5628    2.5718 H   0  0  0  0  0  0  0  0  0  0  0  0
    3.7698   -4.4151    1.1963 H   0  0  0  0  0  0  0  0  0  0  0  0
  1  2  1  0  0  0  0
  1 31  1  0  0  0  0
  1 32  1  0  0  0  0
  1 33  1  0  0  0  0
  2  3  1  0  0  0  0
  2  6  2  0  0  0  0
  3  4  2  0  0  0  0
  3 34  1  0  0  0  0
  4  5  1  0  0  0  0
  4 35  1  0  0  0  0
  5  6  1  0  0  0  0
  6  7  1  0  0  0  0
  7  8  2  0  0  0  0
  7  9  1  0  0  0  0
  9 10  1  0  0  0  0
  9 36  1  0  0  0  0
 10 11  1  0  0  0  0
 10 30  2  0  0  0  0
 11 12  2  0  0  0  0
 11 37  1  0  0  0  0
 12 13  1  0  0  0  0
 12 38  1  0  0  0  0
 13 14  2  0  0  0  0
 13 39  1  0  0  0  0
 14 15  1  0  0  0  0
 14 30  1  0  0  0  0
 15 16  1  0  0  0  0
 16 17  1  0  0  0  0
 16 29  2  0  0  0  0
 17 18  2  0  0  0  0
 17 40  1  0  0  0  0
 18 19  1  0  0  0  0
 18 41  1  0  0  0  0
 19 20  2  0  0  0  0
 20 21  1  0  0  0  0
 20 29  1  0  0  0  0
 21 22  2  0  0  0  0
 21 28  1  0  0  0  0
 22 23  1  0  0  0  0
 22 42  1  0  0  0  0
 23 24  1  0  0  0  0
 23 27  2  0  0  0  0
 24 25  2  0  0  0  0
 24 26  1  0  0  0  0
 26 43  1  0  0  0  0
 27 28  1  0  0  0  0
 27 44  1  0  0  0  0
 28 45  1  0  0  0  0
 29 46  1  0  0  0  0
 30 47  1  0  0  0  0
M  END
$$$$
