CHEMBL393779
 OpenBabel04072215373D

 52 54  0  0  0  0  0  0  0  0999 V2000
   -2.2140   -1.1231    1.0911 C   0  0  0  0  0  0  0  0  0  0  0  0
   -1.0576   -0.4956    0.4987 N   0  0  0  0  0  0  0  0  0  0  0  0
   -0.9025    0.8435    0.2914 C   0  0  0  0  0  0  0  0  0  0  0  0
    0.2643    1.1141   -0.2569 N   0  0  0  0  0  0  0  0  0  0  0  0
    0.8816   -0.0940   -0.3923 C   0  0  0  0  0  0  0  0  0  0  0  0
    2.1011   -0.2159   -0.9510 N   0  0  0  0  0  0  0  0  0  0  0  0
    2.5537    0.7488   -1.9442 C   0  0  0  0  0  0  0  0  0  0  0  0
    2.8344    0.0370   -3.2510 C   0  0  0  0  0  0  0  0  0  0  0  0
    1.7999   -0.5811   -3.9640 C   0  0  0  0  0  0  0  0  0  0  0  0
    2.0970   -1.2083   -5.1648 C   0  0  0  0  0  0  0  0  0  0  0  0
    3.3365   -1.2622   -5.6967 N   0  0  0  0  0  0  0  0  0  0  0  0
    4.3219   -0.6656   -4.9943 C   0  0  0  0  0  0  0  0  0  0  0  0
    4.1261   -0.0167   -3.7836 C   0  0  0  0  0  0  0  0  0  0  0  0
    0.0946   -1.1266    0.0814 C   0  0  0  0  0  0  0  0  0  0  0  0
    0.3164   -2.5520    0.0988 C   0  0  0  0  0  0  0  0  0  0  0  0
   -0.6185   -3.3397    0.0006 O   0  0  0  0  0  0  0  0  0  0  0  0
    1.6398   -2.9037    0.2926 N   0  0  0  0  0  0  0  0  0  0  0  0
    2.1691   -4.2065    0.2532 C   0  0  0  0  0  0  0  0  0  0  0  0
    1.4919   -5.2815   -0.3109 C   0  0  0  0  0  0  0  0  0  0  0  0
    2.0206   -6.5740   -0.2427 C   0  0  0  0  0  0  0  0  0  0  0  0
    3.2453   -6.8336    0.3903 C   0  0  0  0  0  0  0  0  0  0  0  0
    3.7834   -8.2641    0.5671 C   0  0  0  0  0  0  0  0  0  0  0  0
    2.8302   -9.3500    0.0128 C   0  0  0  0  0  0  0  0  0  0  0  0
    5.1338   -8.4172   -0.1598 C   0  0  0  0  0  0  0  0  0  0  0  0
    3.9813   -8.5673    2.0687 C   0  0  0  0  0  0  0  0  0  0  0  0
    3.9566   -5.7246    0.8811 C   0  0  0  0  0  0  0  0  0  0  0  0
    3.4329   -4.4255    0.8044 C   0  0  0  0  0  0  0  0  0  0  0  0
   -2.8997   -0.3538    1.4577 H   0  0  0  0  0  0  0  0  0  0  0  0
   -1.8893   -1.7454    1.9291 H   0  0  0  0  0  0  0  0  0  0  0  0
   -2.7153   -1.7269    0.3294 H   0  0  0  0  0  0  0  0  0  0  0  0
   -1.6608    1.5718    0.5520 H   0  0  0  0  0  0  0  0  0  0  0  0
    2.4788   -1.1413   -1.1312 H   0  0  0  0  0  0  0  0  0  0  0  0
    3.4712    1.2197   -1.5725 H   0  0  0  0  0  0  0  0  0  0  0  0
    1.8371    1.5576   -2.1322 H   0  0  0  0  0  0  0  0  0  0  0  0
    0.7800   -0.5741   -3.5918 H   0  0  0  0  0  0  0  0  0  0  0  0
    1.3215   -1.6953   -5.7488 H   0  0  0  0  0  0  0  0  0  0  0  0
    5.3087   -0.7210   -5.4469 H   0  0  0  0  0  0  0  0  0  0  0  0
    4.9688    0.4401   -3.2757 H   0  0  0  0  0  0  0  0  0  0  0  0
    2.2410   -2.1692    0.6474 H   0  0  0  0  0  0  0  0  0  0  0  0
    0.5391   -5.1526   -0.8156 H   0  0  0  0  0  0  0  0  0  0  0  0
    1.4256   -7.3670   -0.6864 H   0  0  0  0  0  0  0  0  0  0  0  0
    2.6800   -9.2404   -1.0677 H   0  0  0  0  0  0  0  0  0  0  0  0
    1.8477   -9.3071    0.4989 H   0  0  0  0  0  0  0  0  0  0  0  0
    3.2290  -10.3565    0.1828 H   0  0  0  0  0  0  0  0  0  0  0  0
    5.0276   -8.2312   -1.2346 H   0  0  0  0  0  0  0  0  0  0  0  0
    5.5340   -9.4305   -0.0346 H   0  0  0  0  0  0  0  0  0  0  0  0
    5.8897   -7.7230    0.2227 H   0  0  0  0  0  0  0  0  0  0  0  0
    3.0391   -8.4648    2.6208 H   0  0  0  0  0  0  0  0  0  0  0  0
    4.7118   -7.8980    2.5354 H   0  0  0  0  0  0  0  0  0  0  0  0
    4.3431   -9.5917    2.2189 H   0  0  0  0  0  0  0  0  0  0  0  0
    4.9205   -5.8639    1.3560 H   0  0  0  0  0  0  0  0  0  0  0  0
    4.0129   -3.6050    1.2168 H   0  0  0  0  0  0  0  0  0  0  0  0
  1  2  1  0  0  0  0
  1 28  1  0  0  0  0
  1 29  1  0  0  0  0
  1 30  1  0  0  0  0
  2  3  1  0  0  0  0
  2 14  1  0  0  0  0
  3  4  2  0  0  0  0
  3 31  1  0  0  0  0
  4  5  1  0  0  0  0
  5  6  1  0  0  0  0
  5 14  2  0  0  0  0
  6  7  1  0  0  0  0
  6 32  1  0  0  0  0
  7  8  1  0  0  0  0
  7 33  1  0  0  0  0
  7 34  1  0  0  0  0
  8  9  1  0  0  0  0
  8 13  2  0  0  0  0
  9 10  2  0  0  0  0
  9 35  1  0  0  0  0
 10 11  1  0  0  0  0
 10 36  1  0  0  0  0
 11 12  2  0  0  0  0
 12 13  1  0  0  0  0
 12 37  1  0  0  0  0
 13 38  1  0  0  0  0
 14 15  1  0  0  0  0
 15 16  2  0  0  0  0
 15 17  1  0  0  0  0
 17 18  1  0  0  0  0
 17 39  1  0  0  0  0
 18 19  1  0  0  0  0
 18 27  2  0  0  0  0
 19 20  2  0  0  0  0
 19 40  1  0  0  0  0
 20 21  1  0  0  0  0
 20 41  1  0  0  0  0
 21 22  1  0  0  0  0
 21 26  2  0  0  0  0
 22 23  1  0  0  0  0
 22 24  1  0  0  0  0
 22 25  1  0  0  0  0
 23 42  1  0  0  0  0
 23 43  1  0  0  0  0
 23 44  1  0  0  0  0
 24 45  1  0  0  0  0
 24 46  1  0  0  0  0
 24 47  1  0  0  0  0
 25 48  1  0  0  0  0
 25 49  1  0  0  0  0
 25 50  1  0  0  0  0
 26 27  1  0  0  0  0
 26 51  1  0  0  0  0
 27 52  1  0  0  0  0
M  END
$$$$
