CHEMBL4516973
 OpenBabel04072215383D

 44 47  0  0  0  0  0  0  0  0999 V2000
   -4.3286   -2.6351    5.4142 C   0  0  0  0  0  0  0  0  0  0  0  0
   -4.1341   -1.9080    4.1189 C   0  0  0  0  0  0  0  0  0  0  0  0
   -4.6366   -2.4228    2.9184 C   0  0  0  0  0  0  0  0  0  0  0  0
   -4.4409   -1.7470    1.7133 C   0  0  0  0  0  0  0  0  0  0  0  0
   -3.7440   -0.5326    1.6779 C   0  0  0  0  0  0  0  0  0  0  0  0
   -3.4669    0.1312    0.3502 C   0  0  0  0  0  0  0  0  0  0  0  0
   -3.8721    1.5892    0.2591 C   0  0  0  0  0  0  0  0  0  0  0  0
   -3.0382    2.4872    0.3597 O   0  0  0  0  0  0  0  0  0  0  0  0
   -5.2335    1.7856    0.0585 N   0  0  0  0  0  0  0  0  0  0  0  0
   -5.7835    3.0789   -0.0751 C   0  0  0  0  0  0  0  0  0  0  0  0
   -5.1733    4.0511   -0.8888 C   0  0  0  0  0  0  0  0  0  0  0  0
   -5.6604    5.3638   -0.9618 C   0  0  0  0  0  0  0  0  0  0  0  0
   -6.7526    5.6387   -0.1534 C   0  0  0  0  0  0  0  0  0  0  0  0
   -7.3719    6.8370    0.0267 O   0  0  0  0  0  0  0  0  0  0  0  0
   -8.3821    6.5651    0.9132 C   0  0  0  0  0  0  0  0  0  0  0  0
   -9.2211    7.6823    1.3402 C   0  0  0  0  0  0  0  0  0  0  0  0
   -9.7082    7.6653    2.6633 C   0  0  0  0  0  0  0  0  0  0  0  0
  -10.5576    8.6676    3.1396 C   0  0  0  0  0  0  0  0  0  0  0  0
  -10.9398    9.7075    2.2997 C   0  0  0  0  0  0  0  0  0  0  0  0
  -10.4656    9.7472    0.9893 C   0  0  0  0  0  0  0  0  0  0  0  0
   -9.6120    8.7438    0.5072 C   0  0  0  0  0  0  0  0  0  0  0  0
   -9.1450    8.8730   -1.1552 Cl  0  0  0  0  0  0  0  0  0  0  0  0
   -8.4280    5.3066    1.3203 N   0  0  0  0  0  0  0  0  0  0  0  0
   -7.4043    4.7024    0.6348 C   0  0  0  0  0  0  0  0  0  0  0  0
   -6.9445    3.3782    0.6471 C   0  0  0  0  0  0  0  0  0  0  0  0
   -3.2393   -0.0115    2.8769 C   0  0  0  0  0  0  0  0  0  0  0  0
   -3.4331   -0.6947    4.0854 C   0  0  0  0  0  0  0  0  0  0  0  0
   -4.8718   -3.5754    5.2693 H   0  0  0  0  0  0  0  0  0  0  0  0
   -4.9106   -2.0185    6.1077 H   0  0  0  0  0  0  0  0  0  0  0  0
   -3.3626   -2.8755    5.8697 H   0  0  0  0  0  0  0  0  0  0  0  0
   -5.1705   -3.3725    2.9163 H   0  0  0  0  0  0  0  0  0  0  0  0
   -4.8229   -2.1943    0.8001 H   0  0  0  0  0  0  0  0  0  0  0  0
   -3.9618   -0.4083   -0.4662 H   0  0  0  0  0  0  0  0  0  0  0  0
   -2.3905    0.0688    0.1452 H   0  0  0  0  0  0  0  0  0  0  0  0
   -5.8372    1.0623    0.4331 H   0  0  0  0  0  0  0  0  0  0  0  0
   -4.3001    3.7929   -1.4864 H   0  0  0  0  0  0  0  0  0  0  0  0
   -5.1961    6.1243   -1.5772 H   0  0  0  0  0  0  0  0  0  0  0  0
   -9.4257    6.8541    3.3346 H   0  0  0  0  0  0  0  0  0  0  0  0
  -10.9262    8.6279    4.1622 H   0  0  0  0  0  0  0  0  0  0  0  0
  -11.6129   10.4820    2.6592 H   0  0  0  0  0  0  0  0  0  0  0  0
  -10.7788   10.5588    0.3362 H   0  0  0  0  0  0  0  0  0  0  0  0
   -7.4363    2.6495    1.2825 H   0  0  0  0  0  0  0  0  0  0  0  0
   -2.6636    0.9132    2.8806 H   0  0  0  0  0  0  0  0  0  0  0  0
   -3.0187   -0.2803    5.0025 H   0  0  0  0  0  0  0  0  0  0  0  0
  1  2  1  0  0  0  0
  1 28  1  0  0  0  0
  1 29  1  0  0  0  0
  1 30  1  0  0  0  0
  2  3  1  0  0  0  0
  2 27  2  0  0  0  0
  3  4  2  0  0  0  0
  3 31  1  0  0  0  0
  4  5  1  0  0  0  0
  4 32  1  0  0  0  0
  5  6  1  0  0  0  0
  5 26  2  0  0  0  0
  6  7  1  0  0  0  0
  6 33  1  0  0  0  0
  6 34  1  0  0  0  0
  7  8  2  0  0  0  0
  7  9  1  0  0  0  0
  9 10  1  0  0  0  0
  9 35  1  0  0  0  0
 10 11  1  0  0  0  0
 10 25  2  0  0  0  0
 11 12  2  0  0  0  0
 11 36  1  0  0  0  0
 12 13  1  0  0  0  0
 12 37  1  0  0  0  0
 13 14  1  0  0  0  0
 13 24  2  0  0  0  0
 14 15  1  0  0  0  0
 15 16  1  0  0  0  0
 15 23  2  0  0  0  0
 16 17  1  0  0  0  0
 16 21  2  0  0  0  0
 17 18  2  0  0  0  0
 17 38  1  0  0  0  0
 18 19  1  0  0  0  0
 18 39  1  0  0  0  0
 19 20  2  0  0  0  0
 19 40  1  0  0  0  0
 20 21  1  0  0  0  0
 20 41  1  0  0  0  0
 21 22  1  0  0  0  0
 23 24  1  0  0  0  0
 24 25  1  0  0  0  0
 25 42  1  0  0  0  0
 26 27  1  0  0  0  0
 26 43  1  0  0  0  0
 27 44  1  0  0  0  0
M  END
$$$$
