CHEMBL221926
 OpenBabel04072215363D

 51 54  0  0  0  0  0  0  0  0999 V2000
    0.5160    0.0742   -0.8726 C   0  0  0  0  0  0  0  0  0  0  0  0
    1.9884   -0.0585   -1.1737 C   0  0  0  0  0  0  0  0  0  0  0  0
    2.4803   -1.1645   -1.3898 O   0  0  0  0  0  0  0  0  0  0  0  0
    2.7190    1.1104   -1.2319 N   0  0  0  0  0  0  0  0  0  0  0  0
    2.1963    2.4440   -0.9313 C   0  0  0  0  0  0  0  0  0  0  0  0
    2.4402    3.3852   -2.1193 C   0  0  0  0  0  0  0  0  0  0  0  0
    3.8708    3.5041   -2.4762 N   0  0  0  0  0  0  0  0  0  0  0  0
    4.6905    4.1236   -1.4159 C   0  0  0  0  0  0  0  0  0  0  0  0
    4.2763    5.5280   -1.0374 C   0  0  0  0  0  0  0  0  0  0  0  0
    3.3538    5.8050   -0.0308 C   0  0  0  0  0  0  0  0  0  0  0  0
    3.0216    7.1282    0.2185 C   0  0  0  0  0  0  0  0  0  0  0  0
    3.5710    8.1839   -0.4220 N   0  0  0  0  0  0  0  0  0  0  0  0
    4.5111    7.9207   -1.3532 C   0  0  0  0  0  0  0  0  0  0  0  0
    5.1370    9.0252   -1.9373 N   0  0  0  0  0  0  0  0  0  0  0  0
    6.4237    9.0402   -2.3458 C   0  0  0  0  0  0  0  0  0  0  0  0
    7.2370    8.0048   -2.3528 N   0  0  0  0  0  0  0  0  0  0  0  0
    8.4830    8.3556   -2.7925 C   0  0  0  0  0  0  0  0  0  0  0  0
    8.6463    9.6828   -3.1294 C   0  0  0  0  0  0  0  0  0  0  0  0
    9.8454   10.3503   -3.6338 C   0  0  0  0  0  0  0  0  0  0  0  0
   10.7628    9.6297   -4.4156 C   0  0  0  0  0  0  0  0  0  0  0  0
   11.9319   10.2279   -4.8855 C   0  0  0  0  0  0  0  0  0  0  0  0
   12.1962   11.5614   -4.5762 C   0  0  0  0  0  0  0  0  0  0  0  0
   11.2990   12.2892   -3.7974 C   0  0  0  0  0  0  0  0  0  0  0  0
   10.1319   11.6882   -3.3252 C   0  0  0  0  0  0  0  0  0  0  0  0
    7.1547   10.5019   -2.8908 S   0  0  0  0  0  0  0  0  0  0  0  0
    4.8423    6.6113   -1.7047 C   0  0  0  0  0  0  0  0  0  0  0  0
    4.3735    2.1373   -2.7880 C   0  0  0  0  0  0  0  0  0  0  0  0
    4.1170    1.0823   -1.6827 C   0  0  0  0  0  0  0  0  0  0  0  0
    0.0703   -0.9197   -0.7788 H   0  0  0  0  0  0  0  0  0  0  0  0
    0.0252    0.5987   -1.6969 H   0  0  0  0  0  0  0  0  0  0  0  0
    0.3539    0.6018    0.0710 H   0  0  0  0  0  0  0  0  0  0  0  0
    2.7082    2.7884   -0.0284 H   0  0  0  0  0  0  0  0  0  0  0  0
    1.1295    2.4328   -0.6955 H   0  0  0  0  0  0  0  0  0  0  0  0
    1.9914    4.3651   -1.9387 H   0  0  0  0  0  0  0  0  0  0  0  0
    1.9025    2.9873   -2.9927 H   0  0  0  0  0  0  0  0  0  0  0  0
    5.7268    4.1725   -1.7795 H   0  0  0  0  0  0  0  0  0  0  0  0
    4.7415    3.5182   -0.5045 H   0  0  0  0  0  0  0  0  0  0  0  0
    2.8847    5.0182    0.5457 H   0  0  0  0  0  0  0  0  0  0  0  0
    2.2816    7.3822    0.9726 H   0  0  0  0  0  0  0  0  0  0  0  0
    4.7264    9.8851   -1.5945 H   0  0  0  0  0  0  0  0  0  0  0  0
    9.2492    7.5934   -2.8404 H   0  0  0  0  0  0  0  0  0  0  0  0
   10.5781    8.5881   -4.6729 H   0  0  0  0  0  0  0  0  0  0  0  0
   12.6307    9.6571   -5.4884 H   0  0  0  0  0  0  0  0  0  0  0  0
   13.1026   12.0273   -4.9393 H   0  0  0  0  0  0  0  0  0  0  0  0
   11.5112   13.3254   -3.5502 H   0  0  0  0  0  0  0  0  0  0  0  0
    9.4627   12.2737   -2.7003 H   0  0  0  0  0  0  0  0  0  0  0  0
    5.5618    6.4189   -2.4940 H   0  0  0  0  0  0  0  0  0  0  0  0
    5.4404    2.1702   -3.0383 H   0  0  0  0  0  0  0  0  0  0  0  0
    3.8675    1.7998   -3.7037 H   0  0  0  0  0  0  0  0  0  0  0  0
    4.7494    1.2767   -0.8097 H   0  0  0  0  0  0  0  0  0  0  0  0
    4.3839    0.0905   -2.0608 H   0  0  0  0  0  0  0  0  0  0  0  0
  1  2  1  0  0  0  0
  1 29  1  0  0  0  0
  1 30  1  0  0  0  0
  1 31  1  0  0  0  0
  2  3  2  0  0  0  0
  2  4  1  0  0  0  0
  4  5  1  0  0  0  0
  4 28  1  0  0  0  0
  5  6  1  0  0  0  0
  5 32  1  0  0  0  0
  5 33  1  0  0  0  0
  6  7  1  0  0  0  0
  6 34  1  0  0  0  0
  6 35  1  0  0  0  0
  7  8  1  0  0  0  0
  7 27  1  0  0  0  0
  8  9  1  0  0  0  0
  8 36  1  0  0  0  0
  8 37  1  0  0  0  0
  9 10  1  0  0  0  0
  9 26  2  0  0  0  0
 10 11  2  0  0  0  0
 10 38  1  0  0  0  0
 11 12  1  0  0  0  0
 11 39  1  0  0  0  0
 12 13  2  0  0  0  0
 13 14  1  0  0  0  0
 13 26  1  0  0  0  0
 14 15  1  0  0  0  0
 14 40  1  0  0  0  0
 15 16  2  0  0  0  0
 15 25  1  0  0  0  0
 16 17  1  0  0  0  0
 17 18  2  0  0  0  0
 17 41  1  0  0  0  0
 18 19  1  0  0  0  0
 18 25  1  0  0  0  0
 19 20  1  0  0  0  0
 19 24  2  0  0  0  0
 20 21  2  0  0  0  0
 20 42  1  0  0  0  0
 21 22  1  0  0  0  0
 21 43  1  0  0  0  0
 22 23  2  0  0  0  0
 22 44  1  0  0  0  0
 23 24  1  0  0  0  0
 23 45  1  0  0  0  0
 24 46  1  0  0  0  0
 26 47  1  0  0  0  0
 27 28  1  0  0  0  0
 27 48  1  0  0  0  0
 27 49  1  0  0  0  0
 28 50  1  0  0  0  0
 28 51  1  0  0  0  0
M  END
$$$$
