CHEMBL391437
 OpenBabel04072215373D

 42 47  0  0  0  0  0  0  0  0999 V2000
    4.1130   -1.0531   -1.8653 C   0  0  0  0  0  0  0  0  0  0  0  0
    4.3236    0.3155   -1.8320 C   0  0  0  0  0  0  0  0  0  0  0  0
    3.3997    1.1485   -1.1930 C   0  0  0  0  0  0  0  0  0  0  0  0
    2.1985    0.6584   -0.6131 C   0  0  0  0  0  0  0  0  0  0  0  0
    1.1617    1.4632   -0.0293 C   0  0  0  0  0  0  0  0  0  0  0  0
    1.1528    2.9509   -0.0215 C   0  0  0  0  0  0  0  0  0  0  0  0
    0.6971    3.6935    1.0826 C   0  0  0  0  0  0  0  0  0  0  0  0
    0.6619    5.0512    1.2140 N   0  0  0  0  0  0  0  0  0  0  0  0
    1.1868    5.6790    0.1475 C   0  0  0  0  0  0  0  0  0  0  0  0
    1.3509    7.0247   -0.0098 N   0  0  0  0  0  0  0  0  0  0  0  0
    1.9729    7.3729   -1.1606 N   0  0  0  0  0  0  0  0  0  0  0  0
    2.1726    6.1881   -1.7657 C   0  0  0  0  0  0  0  0  0  0  0  0
    2.9014    6.0785   -3.0631 C   0  0  0  0  0  0  0  0  0  0  0  0
    3.1575    4.9577   -3.7096 N   0  0  0  0  0  0  0  0  0  0  0  0
    3.8402    5.3386   -4.8389 C   0  0  0  0  0  0  0  0  0  0  0  0
    4.3385    4.5564   -5.8915 C   0  0  0  0  0  0  0  0  0  0  0  0
    4.9983    5.1953   -6.9488 C   0  0  0  0  0  0  0  0  0  0  0  0
    5.1623    6.5830   -6.9541 C   0  0  0  0  0  0  0  0  0  0  0  0
    4.6852    7.3790   -5.9083 C   0  0  0  0  0  0  0  0  0  0  0  0
    4.0188    6.7193   -4.8737 C   0  0  0  0  0  0  0  0  0  0  0  0
    3.4153    7.1627   -3.7266 N   0  0  0  0  0  0  0  0  0  0  0  0
    1.6712    5.1012   -1.0090 C   0  0  0  0  0  0  0  0  0  0  0  0
    1.5900    3.7046   -1.1228 C   0  0  0  0  0  0  0  0  0  0  0  0
    0.0847    0.7686    0.5418 C   0  0  0  0  0  0  0  0  0  0  0  0
   -0.0556   -0.5742    0.5879 N   0  0  0  0  0  0  0  0  0  0  0  0
    0.9180   -1.2935   -0.0020 C   0  0  0  0  0  0  0  0  0  0  0  0
    2.0403   -0.7498   -0.6220 C   0  0  0  0  0  0  0  0  0  0  0  0
    2.9884   -1.5864   -1.2422 C   0  0  0  0  0  0  0  0  0  0  0  0
    4.8265   -1.7041   -2.3630 H   0  0  0  0  0  0  0  0  0  0  0  0
    5.2038    0.7477   -2.3023 H   0  0  0  0  0  0  0  0  0  0  0  0
    3.6480    2.2061   -1.1632 H   0  0  0  0  0  0  0  0  0  0  0  0
    0.3219    3.1842    1.9701 H   0  0  0  0  0  0  0  0  0  0  0  0
    1.0757    7.7458    0.6449 H   0  0  0  0  0  0  0  0  0  0  0  0
    4.2020    3.4807   -5.8831 H   0  0  0  0  0  0  0  0  0  0  0  0
    5.3796    4.6027   -7.7772 H   0  0  0  0  0  0  0  0  0  0  0  0
    5.6796    7.0549   -7.7891 H   0  0  0  0  0  0  0  0  0  0  0  0
    4.8083    8.4556   -5.9160 H   0  0  0  0  0  0  0  0  0  0  0  0
    3.3455    8.1139   -3.3968 H   0  0  0  0  0  0  0  0  0  0  0  0
    1.9070    3.2364   -2.0504 H   0  0  0  0  0  0  0  0  0  0  0  0
   -0.7534    1.2964    0.9923 H   0  0  0  0  0  0  0  0  0  0  0  0
    0.7636   -2.3693    0.0379 H   0  0  0  0  0  0  0  0  0  0  0  0
    2.8488   -2.6652   -1.2541 H   0  0  0  0  0  0  0  0  0  0  0  0
  1  2  1  0  0  0  0
  1 28  2  0  0  0  0
  1 29  1  0  0  0  0
  2  3  2  0  0  0  0
  2 30  1  0  0  0  0
  3  4  1  0  0  0  0
  3 31  1  0  0  0  0
  4  5  1  0  0  0  0
  4 27  2  0  0  0  0
  5  6  1  0  0  0  0
  5 24  2  0  0  0  0
  6  7  1  0  0  0  0
  6 23  2  0  0  0  0
  7  8  2  0  0  0  0
  7 32  1  0  0  0  0
  8  9  1  0  0  0  0
  9 10  1  0  0  0  0
  9 22  2  0  0  0  0
 10 11  1  0  0  0  0
 10 33  1  0  0  0  0
 11 12  2  0  0  0  0
 12 13  1  0  0  0  0
 12 22  1  0  0  0  0
 13 14  2  0  0  0  0
 13 21  1  0  0  0  0
 14 15  1  0  0  0  0
 15 16  1  0  0  0  0
 15 20  2  0  0  0  0
 16 17  2  0  0  0  0
 16 34  1  0  0  0  0
 17 18  1  0  0  0  0
 17 35  1  0  0  0  0
 18 19  2  0  0  0  0
 18 36  1  0  0  0  0
 19 20  1  0  0  0  0
 19 37  1  0  0  0  0
 20 21  1  0  0  0  0
 21 38  1  0  0  0  0
 22 23  1  0  0  0  0
 23 39  1  0  0  0  0
 24 25  1  0  0  0  0
 24 40  1  0  0  0  0
 25 26  2  0  0  0  0
 26 27  1  0  0  0  0
 26 41  1  0  0  0  0
 27 28  1  0  0  0  0
 28 42  1  0  0  0  0
M  END
$$$$
