CHEMBL4170942
 OpenBabel04072215383D

 51 53  0  0  0  0  0  0  0  0999 V2000
    5.5586    2.9785    4.0586 C   0  0  0  0  0  0  0  0  0  0  0  0
    5.9995    3.6391    2.9790 C   0  0  0  0  0  0  0  0  0  0  0  0
    5.4746    3.2818    1.6351 C   0  0  0  0  0  0  0  0  0  0  0  0
    4.5280    2.5097    1.5095 O   0  0  0  0  0  0  0  0  0  0  0  0
    6.1881    3.8507    0.6077 N   0  0  0  0  0  0  0  0  0  0  0  0
    5.8866    3.5935   -0.7322 C   0  0  0  0  0  0  0  0  0  0  0  0
    4.5730    3.5528   -1.1824 C   0  0  0  0  0  0  0  0  0  0  0  0
    4.3333    3.2332   -2.5085 C   0  0  0  0  0  0  0  0  0  0  0  0
    5.4088    2.9361   -3.3384 C   0  0  0  0  0  0  0  0  0  0  0  0
    6.7043    3.0147   -2.8275 C   0  0  0  0  0  0  0  0  0  0  0  0
    7.8988    2.7284   -3.6502 C   0  0  0  0  0  0  0  0  0  0  0  0
    9.1153    3.3426   -3.3381 C   0  0  0  0  0  0  0  0  0  0  0  0
   10.2480    3.1685   -4.1344 C   0  0  0  0  0  0  0  0  0  0  0  0
   10.2177    2.3648   -5.2726 C   0  0  0  0  0  0  0  0  0  0  0  0
   11.3300    2.2082   -6.1410 N   0  0  0  0  0  0  0  0  0  0  0  0
   12.5601    2.8230   -5.9774 C   0  0  0  0  0  0  0  0  0  0  0  0
   12.8589    3.5723   -5.0580 O   0  0  0  0  0  0  0  0  0  0  0  0
   13.4431    2.5069   -7.0012 N   0  0  0  0  0  0  0  0  0  0  0  0
   14.7834    2.9862   -6.9297 C   0  0  0  0  0  0  0  0  0  0  0  0
   15.6123    2.6896   -5.8217 C   0  0  0  0  0  0  0  0  0  0  0  0
   15.1914    1.8419   -4.6487 C   0  0  0  0  0  0  0  0  0  0  0  0
   16.9066    3.2361   -5.7671 C   0  0  0  0  0  0  0  0  0  0  0  0
   17.3930    4.0270   -6.8013 C   0  0  0  0  0  0  0  0  0  0  0  0
   16.5876    4.2970   -7.9027 C   0  0  0  0  0  0  0  0  0  0  0  0
   15.2786    3.7895   -7.9815 C   0  0  0  0  0  0  0  0  0  0  0  0
   14.4151    4.2313   -9.1318 C   0  0  0  0  0  0  0  0  0  0  0  0
    9.0312    1.6909   -5.5712 C   0  0  0  0  0  0  0  0  0  0  0  0
    7.8890    1.8695   -4.7662 C   0  0  0  0  0  0  0  0  0  0  0  0
    6.9437    3.3967   -1.5425 N   0  0  0  0  0  0  0  0  0  0  0  0
    5.8906    3.2422    5.0558 H   0  0  0  0  0  0  0  0  0  0  0  0
    4.8480    2.1592    3.9691 H   0  0  0  0  0  0  0  0  0  0  0  0
    6.6985    4.4599    3.0681 H   0  0  0  0  0  0  0  0  0  0  0  0
    7.1491    4.1185    0.7700 H   0  0  0  0  0  0  0  0  0  0  0  0
    3.7455    3.7791   -0.5182 H   0  0  0  0  0  0  0  0  0  0  0  0
    3.3170    3.2057   -2.8906 H   0  0  0  0  0  0  0  0  0  0  0  0
    5.2234    2.6720   -4.3718 H   0  0  0  0  0  0  0  0  0  0  0  0
    9.1977    3.9928   -2.4696 H   0  0  0  0  0  0  0  0  0  0  0  0
   11.1374    3.6959   -3.8164 H   0  0  0  0  0  0  0  0  0  0  0  0
   11.2378    1.5508   -6.8994 H   0  0  0  0  0  0  0  0  0  0  0  0
   13.0061    2.5497   -7.9079 H   0  0  0  0  0  0  0  0  0  0  0  0
   14.3205    1.2178   -4.8638 H   0  0  0  0  0  0  0  0  0  0  0  0
   14.9684    2.4808   -3.7872 H   0  0  0  0  0  0  0  0  0  0  0  0
   15.9980    1.1548   -4.3706 H   0  0  0  0  0  0  0  0  0  0  0  0
   17.5391    3.0485   -4.9016 H   0  0  0  0  0  0  0  0  0  0  0  0
   18.3936    4.4466   -6.7388 H   0  0  0  0  0  0  0  0  0  0  0  0
   16.9780    4.9401   -8.6884 H   0  0  0  0  0  0  0  0  0  0  0  0
   14.9701    4.8627   -9.8342 H   0  0  0  0  0  0  0  0  0  0  0  0
   13.5728    4.8240   -8.7576 H   0  0  0  0  0  0  0  0  0  0  0  0
   14.0410    3.3690   -9.6898 H   0  0  0  0  0  0  0  0  0  0  0  0
    8.9593    1.0306   -6.4319 H   0  0  0  0  0  0  0  0  0  0  0  0
    6.9880    1.3175   -5.0276 H   0  0  0  0  0  0  0  0  0  0  0  0
  1  2  2  0  0  0  0
  1 30  1  0  0  0  0
  1 31  1  0  0  0  0
  2  3  1  0  0  0  0
  2 32  1  0  0  0  0
  3  4  2  0  0  0  0
  3  5  1  0  0  0  0
  5  6  1  0  0  0  0
  5 33  1  0  0  0  0
  6  7  1  0  0  0  0
  6 29  2  0  0  0  0
  7  8  2  0  0  0  0
  7 34  1  0  0  0  0
  8  9  1  0  0  0  0
  8 35  1  0  0  0  0
  9 10  2  0  0  0  0
  9 36  1  0  0  0  0
 10 11  1  0  0  0  0
 10 29  1  0  0  0  0
 11 12  1  0  0  0  0
 11 28  2  0  0  0  0
 12 13  2  0  0  0  0
 12 37  1  0  0  0  0
 13 14  1  0  0  0  0
 13 38  1  0  0  0  0
 14 15  1  0  0  0  0
 14 27  2  0  0  0  0
 15 16  1  0  0  0  0
 15 39  1  0  0  0  0
 16 17  2  0  0  0  0
 16 18  1  0  0  0  0
 18 19  1  0  0  0  0
 18 40  1  0  0  0  0
 19 20  1  0  0  0  0
 19 25  2  0  0  0  0
 20 21  1  0  0  0  0
 20 22  2  0  0  0  0
 21 41  1  0  0  0  0
 21 42  1  0  0  0  0
 21 43  1  0  0  0  0
 22 23  1  0  0  0  0
 22 44  1  0  0  0  0
 23 24  2  0  0  0  0
 23 45  1  0  0  0  0
 24 25  1  0  0  0  0
 24 46  1  0  0  0  0
 25 26  1  0  0  0  0
 26 47  1  0  0  0  0
 26 48  1  0  0  0  0
 26 49  1  0  0  0  0
 27 28  1  0  0  0  0
 27 50  1  0  0  0  0
 28 51  1  0  0  0  0
M  END
$$$$
