CHEMBL382308
 OpenBabel04072215373D

 37 39  0  0  0  0  0  0  0  0999 V2000
    4.4202   -2.6990    1.5740 C   0  0  0  0  0  0  0  0  0  0  0  0
    2.9593   -3.0235    1.4759 C   0  0  0  0  0  0  0  0  0  0  0  0
    2.1205   -2.2864    0.6330 C   0  0  0  0  0  0  0  0  0  0  0  0
    0.7629   -2.6072    0.5097 C   0  0  0  0  0  0  0  0  0  0  0  0
    0.2184   -3.6742    1.2234 C   0  0  0  0  0  0  0  0  0  0  0  0
   -1.1288   -4.0936    1.1286 N   0  0  0  0  0  0  0  0  0  0  0  0
   -2.1258   -3.5693    0.3209 C   0  0  0  0  0  0  0  0  0  0  0  0
   -1.9590   -2.6039   -0.4177 O   0  0  0  0  0  0  0  0  0  0  0  0
   -3.4142   -4.2549    0.3894 C   0  0  0  0  0  0  0  0  0  0  0  0
   -3.6944   -5.5858    1.4448 S   0  0  0  0  0  0  0  0  0  0  0  0
   -5.2850   -5.7273    0.8385 C   0  0  0  0  0  0  0  0  0  0  0  0
   -5.6321   -4.8537   -0.0770 N   0  0  0  0  0  0  0  0  0  0  0  0
   -4.5708   -3.9945   -0.3430 C   0  0  0  0  0  0  0  0  0  0  0  0
   -4.7549   -2.9435   -1.4042 C   0  0  0  0  0  0  0  0  0  0  0  0
   -6.2083   -2.4994   -1.6037 C   0  0  0  0  0  0  0  0  0  0  0  0
   -6.3390   -1.4860   -2.6883 C   0  0  0  0  0  0  0  0  0  0  0  0
   -6.5581   -1.7064   -4.0669 C   0  0  0  0  0  0  0  0  0  0  0  0
   -6.6139   -0.5673   -4.7609 N   0  0  0  0  0  0  0  0  0  0  0  0
   -6.4292    0.4382   -3.8259 O   0  0  0  0  0  0  0  0  0  0  0  0
   -6.2673   -0.1156   -2.5986 C   0  0  0  0  0  0  0  0  0  0  0  0
    1.0611   -4.3917    2.0819 C   0  0  0  0  0  0  0  0  0  0  0  0
    0.5627   -5.4195    2.7889 F   0  0  0  0  0  0  0  0  0  0  0  0
    2.4145   -4.0795    2.2131 C   0  0  0  0  0  0  0  0  0  0  0  0
    4.6834   -1.8467    0.9383 H   0  0  0  0  0  0  0  0  0  0  0  0
    5.0175   -3.5556    1.2456 H   0  0  0  0  0  0  0  0  0  0  0  0
    4.6863   -2.4439    2.6043 H   0  0  0  0  0  0  0  0  0  0  0  0
    2.5144   -1.4545    0.0525 H   0  0  0  0  0  0  0  0  0  0  0  0
    0.1676   -2.0003   -0.1646 H   0  0  0  0  0  0  0  0  0  0  0  0
   -1.3727   -4.8965    1.6981 H   0  0  0  0  0  0  0  0  0  0  0  0
   -5.9625   -6.4956    1.1893 H   0  0  0  0  0  0  0  0  0  0  0  0
   -4.3559   -3.3413   -2.3465 H   0  0  0  0  0  0  0  0  0  0  0  0
   -4.1648   -2.0554   -1.1566 H   0  0  0  0  0  0  0  0  0  0  0  0
   -6.6001   -2.0826   -0.6662 H   0  0  0  0  0  0  0  0  0  0  0  0
   -6.8424   -3.3611   -1.8473 H   0  0  0  0  0  0  0  0  0  0  0  0
   -6.6767   -2.6424   -4.5949 H   0  0  0  0  0  0  0  0  0  0  0  0
   -6.1120    0.5847   -1.7908 H   0  0  0  0  0  0  0  0  0  0  0  0
    3.0320   -4.6696    2.8834 H   0  0  0  0  0  0  0  0  0  0  0  0
  1  2  1  0  0  0  0
  1 24  1  0  0  0  0
  1 25  1  0  0  0  0
  1 26  1  0  0  0  0
  2  3  1  0  0  0  0
  2 23  2  0  0  0  0
  3  4  2  0  0  0  0
  3 27  1  0  0  0  0
  4  5  1  0  0  0  0
  4 28  1  0  0  0  0
  5  6  1  0  0  0  0
  5 21  2  0  0  0  0
  6  7  1  0  0  0  0
  6 29  1  0  0  0  0
  7  8  2  0  0  0  0
  7  9  1  0  0  0  0
  9 10  1  0  0  0  0
  9 13  2  0  0  0  0
 10 11  1  0  0  0  0
 11 12  2  0  0  0  0
 11 30  1  0  0  0  0
 12 13  1  0  0  0  0
 13 14  1  0  0  0  0
 14 15  1  0  0  0  0
 14 31  1  0  0  0  0
 14 32  1  0  0  0  0
 15 16  1  0  0  0  0
 15 33  1  0  0  0  0
 15 34  1  0  0  0  0
 16 17  1  0  0  0  0
 16 20  2  0  0  0  0
 17 18  2  0  0  0  0
 17 35  1  0  0  0  0
 18 19  1  0  0  0  0
 19 20  1  0  0  0  0
 20 36  1  0  0  0  0
 21 22  1  0  0  0  0
 21 23  1  0  0  0  0
 23 37  1  0  0  0  0
M  END
$$$$
