CHEMBL1681955
 OpenBabel04072215363D

 52 54  0  0  0  0  0  0  0  0999 V2000
    9.0305   -7.4108   -2.8156 C   0  0  0  0  0  0  0  0  0  0  0  0
    8.4855   -6.5852   -1.7874 O   0  0  0  0  0  0  0  0  0  0  0  0
    7.4237   -5.8628   -2.3407 N   0  0  0  0  0  0  0  0  0  0  0  0
    6.8652   -5.1112   -1.4422 C   0  0  0  0  0  0  0  0  0  0  0  0
    5.7193   -4.2600   -1.8002 C   0  0  0  0  0  0  0  0  0  0  0  0
    4.8877   -4.5743   -2.8729 C   0  0  0  0  0  0  0  0  0  0  0  0
    4.9803   -5.7750   -3.5756 N   0  0  0  0  0  0  0  0  0  0  0  0
    3.8515   -3.8041   -3.2436 N   0  0  0  0  0  0  0  0  0  0  0  0
    3.6653   -2.6805   -2.5484 C   0  0  0  0  0  0  0  0  0  0  0  0
    4.4150   -2.2666   -1.5255 N   0  0  0  0  0  0  0  0  0  0  0  0
    5.4168   -3.0886   -1.1323 C   0  0  0  0  0  0  0  0  0  0  0  0
    6.1702   -2.6980   -0.0188 O   0  0  0  0  0  0  0  0  0  0  0  0
    5.5505   -1.8342    0.8709 C   0  0  0  0  0  0  0  0  0  0  0  0
    4.2328   -2.0336    1.2774 C   0  0  0  0  0  0  0  0  0  0  0  0
    3.5858   -1.0908    2.0736 C   0  0  0  0  0  0  0  0  0  0  0  0
    4.2529    0.0340    2.5668 C   0  0  0  0  0  0  0  0  0  0  0  0
    3.5748    1.0099    3.3541 N   0  0  0  0  0  0  0  0  0  0  0  0
    2.3344    0.8253    3.9367 C   0  0  0  0  0  0  0  0  0  0  0  0
    1.7347   -0.2394    3.9936 O   0  0  0  0  0  0  0  0  0  0  0  0
    1.7674    1.9836    4.4237 N   0  0  0  0  0  0  0  0  0  0  0  0
    0.4357    1.8982    5.0256 C   0  0  0  0  0  0  0  0  0  0  0  0
   -0.3163    3.2306    4.9779 C   0  0  0  0  0  0  0  0  0  0  0  0
   -1.7230    3.0770    5.5624 C   0  0  0  0  0  0  0  0  0  0  0  0
   -1.6879    2.5209    6.9841 C   0  0  0  0  0  0  0  0  0  0  0  0
   -0.9009    1.2160    7.0633 C   0  0  0  0  0  0  0  0  0  0  0  0
    0.4974    1.3595    6.4646 C   0  0  0  0  0  0  0  0  0  0  0  0
    5.6099    0.1851    2.2189 C   0  0  0  0  0  0  0  0  0  0  0  0
    6.5309    1.5235    2.8226 Cl  0  0  0  0  0  0  0  0  0  0  0  0
    6.2598   -0.7431    1.3789 C   0  0  0  0  0  0  0  0  0  0  0  0
    9.9691   -7.8427   -2.4602 H   0  0  0  0  0  0  0  0  0  0  0  0
    9.2349   -6.8200   -3.7153 H   0  0  0  0  0  0  0  0  0  0  0  0
    8.3340   -8.2207   -3.0562 H   0  0  0  0  0  0  0  0  0  0  0  0
    7.2393   -5.0784   -0.4038 H   0  0  0  0  0  0  0  0  0  0  0  0
    5.9516   -6.0216   -3.7698 H   0  0  0  0  0  0  0  0  0  0  0  0
    4.3811   -5.7414   -4.3928 H   0  0  0  0  0  0  0  0  0  0  0  0
    2.8227   -2.0581   -2.8278 H   0  0  0  0  0  0  0  0  0  0  0  0
    3.6590   -2.8870    0.9276 H   0  0  0  0  0  0  0  0  0  0  0  0
    2.5291   -1.2566    2.2523 H   0  0  0  0  0  0  0  0  0  0  0  0
    4.0950    1.8470    3.5795 H   0  0  0  0  0  0  0  0  0  0  0  0
    2.3812    2.7306    4.7220 H   0  0  0  0  0  0  0  0  0  0  0  0
   -0.1401    1.1816    4.4230 H   0  0  0  0  0  0  0  0  0  0  0  0
   -0.3908    3.5814    3.9418 H   0  0  0  0  0  0  0  0  0  0  0  0
    0.2344    3.9988    5.5336 H   0  0  0  0  0  0  0  0  0  0  0  0
   -2.3102    2.4023    4.9259 H   0  0  0  0  0  0  0  0  0  0  0  0
   -2.2369    4.0443    5.5568 H   0  0  0  0  0  0  0  0  0  0  0  0
   -2.7107    2.3543    7.3414 H   0  0  0  0  0  0  0  0  0  0  0  0
   -1.2325    3.2612    7.6527 H   0  0  0  0  0  0  0  0  0  0  0  0
   -1.4464    0.4292    6.5269 H   0  0  0  0  0  0  0  0  0  0  0  0
   -0.8244    0.8929    8.1076 H   0  0  0  0  0  0  0  0  0  0  0  0
    0.9971    0.3840    6.4905 H   0  0  0  0  0  0  0  0  0  0  0  0
    1.0986    2.0326    7.0883 H   0  0  0  0  0  0  0  0  0  0  0  0
    7.3024   -0.6021    1.1083 H   0  0  0  0  0  0  0  0  0  0  0  0
  1  2  1  0  0  0  0
  1 30  1  0  0  0  0
  1 31  1  0  0  0  0
  1 32  1  0  0  0  0
  2  3  1  0  0  0  0
  3  4  2  0  0  0  0
  4  5  1  0  0  0  0
  4 33  1  0  0  0  0
  5  6  1  0  0  0  0
  5 11  2  0  0  0  0
  6  7  1  0  0  0  0
  6  8  2  0  0  0  0
  7 34  1  0  0  0  0
  7 35  1  0  0  0  0
  8  9  1  0  0  0  0
  9 10  2  0  0  0  0
  9 36  1  0  0  0  0
 10 11  1  0  0  0  0
 11 12  1  0  0  0  0
 12 13  1  0  0  0  0
 13 14  1  0  0  0  0
 13 29  2  0  0  0  0
 14 15  2  0  0  0  0
 14 37  1  0  0  0  0
 15 16  1  0  0  0  0
 15 38  1  0  0  0  0
 16 17  1  0  0  0  0
 16 27  2  0  0  0  0
 17 18  1  0  0  0  0
 17 39  1  0  0  0  0
 18 19  2  0  0  0  0
 18 20  1  0  0  0  0
 20 21  1  0  0  0  0
 20 40  1  0  0  0  0
 21 22  1  0  0  0  0
 21 26  1  0  0  0  0
 21 41  1  0  0  0  0
 22 23  1  0  0  0  0
 22 42  1  0  0  0  0
 22 43  1  0  0  0  0
 23 24  1  0  0  0  0
 23 44  1  0  0  0  0
 23 45  1  0  0  0  0
 24 25  1  0  0  0  0
 24 46  1  0  0  0  0
 24 47  1  0  0  0  0
 25 26  1  0  0  0  0
 25 48  1  0  0  0  0
 25 49  1  0  0  0  0
 26 50  1  0  0  0  0
 26 51  1  0  0  0  0
 27 28  1  0  0  0  0
 27 29  1  0  0  0  0
 29 52  1  0  0  0  0
M  END
$$$$
