CHEMBL231308
 OpenBabel04072215363D

 48 51  0  0  0  0  0  0  0  0999 V2000
    1.5875    1.0196    2.5615 C   0  0  0  0  0  0  0  0  0  0  0  0
    0.3288    0.3837    2.0383 C   0  0  0  0  0  0  0  0  0  0  0  0
   -0.8453    1.1389    2.0173 C   0  0  0  0  0  0  0  0  0  0  0  0
   -2.0352    0.5951    1.5348 C   0  0  0  0  0  0  0  0  0  0  0  0
   -2.0913   -0.7093    1.0425 C   0  0  0  0  0  0  0  0  0  0  0  0
   -3.2794   -1.2968    0.5252 N   0  0  0  0  0  0  0  0  0  0  0  0
   -4.4624   -0.6263    0.2988 C   0  0  0  0  0  0  0  0  0  0  0  0
   -4.6217    0.5858    0.4265 O   0  0  0  0  0  0  0  0  0  0  0  0
   -5.5024   -1.4817   -0.0639 N   0  0  0  0  0  0  0  0  0  0  0  0
   -6.7982   -0.9595   -0.3103 C   0  0  0  0  0  0  0  0  0  0  0  0
   -6.9750    0.2336   -1.0158 C   0  0  0  0  0  0  0  0  0  0  0  0
   -8.2286    0.8479   -1.0691 C   0  0  0  0  0  0  0  0  0  0  0  0
   -9.3432    0.2628   -0.4524 C   0  0  0  0  0  0  0  0  0  0  0  0
  -10.6283    0.9825   -0.4041 C   0  0  0  0  0  0  0  0  0  0  0  0
  -11.0295    1.7084   -1.5121 C   0  0  0  0  0  0  0  0  0  0  0  0
  -12.5021    2.5190   -1.2955 S   0  0  0  0  0  0  0  0  0  0  0  0
  -12.6775    1.9149    0.3020 C   0  0  0  0  0  0  0  0  0  0  0  0
  -13.7582    2.1869    1.1513 C   0  0  0  0  0  0  0  0  0  0  0  0
  -13.7121    1.6062    2.3920 C   0  0  0  0  0  0  0  0  0  0  0  0
  -12.7017    0.8364    2.8243 N   0  0  0  0  0  0  0  0  0  0  0  0
  -11.6435    0.5863    2.0185 C   0  0  0  0  0  0  0  0  0  0  0  0
  -10.6473   -0.1690    2.6274 N   0  0  0  0  0  0  0  0  0  0  0  0
  -11.6005    1.1035    0.6922 C   0  0  0  0  0  0  0  0  0  0  0  0
   -9.1804   -1.0034    0.1252 C   0  0  0  0  0  0  0  0  0  0  0  0
   -7.9148   -1.6072    0.2098 C   0  0  0  0  0  0  0  0  0  0  0  0
   -0.9180   -1.4768    1.0757 C   0  0  0  0  0  0  0  0  0  0  0  0
    0.2931   -0.9444    1.5730 C   0  0  0  0  0  0  0  0  0  0  0  0
    1.5308   -1.7991    1.6038 C   0  0  0  0  0  0  0  0  0  0  0  0
    1.4146    2.0598    2.8606 H   0  0  0  0  0  0  0  0  0  0  0  0
    2.3603    1.0277    1.7877 H   0  0  0  0  0  0  0  0  0  0  0  0
    1.9498    0.4813    3.4424 H   0  0  0  0  0  0  0  0  0  0  0  0
   -0.8526    2.1656    2.3756 H   0  0  0  0  0  0  0  0  0  0  0  0
   -2.9061    1.2409    1.5648 H   0  0  0  0  0  0  0  0  0  0  0  0
   -3.2050   -2.2322    0.1588 H   0  0  0  0  0  0  0  0  0  0  0  0
   -5.4600   -2.3966    0.3673 H   0  0  0  0  0  0  0  0  0  0  0  0
   -6.1303    0.7305   -1.4885 H   0  0  0  0  0  0  0  0  0  0  0  0
   -8.2969    1.8127   -1.5665 H   0  0  0  0  0  0  0  0  0  0  0  0
  -10.5213    1.8134   -2.4611 H   0  0  0  0  0  0  0  0  0  0  0  0
  -14.5841    2.8184    0.8456 H   0  0  0  0  0  0  0  0  0  0  0  0
  -14.5149    1.7554    3.1077 H   0  0  0  0  0  0  0  0  0  0  0  0
  -10.8509   -0.2168    3.6204 H   0  0  0  0  0  0  0  0  0  0  0  0
   -9.7170    0.1603    2.4029 H   0  0  0  0  0  0  0  0  0  0  0  0
  -10.0297   -1.5190    0.5690 H   0  0  0  0  0  0  0  0  0  0  0  0
   -7.8172   -2.5398    0.7583 H   0  0  0  0  0  0  0  0  0  0  0  0
   -0.9317   -2.5015    0.7117 H   0  0  0  0  0  0  0  0  0  0  0  0
    1.3397   -2.8053    1.2197 H   0  0  0  0  0  0  0  0  0  0  0  0
    1.8925   -1.9012    2.6330 H   0  0  0  0  0  0  0  0  0  0  0  0
    2.3175   -1.3508    0.9876 H   0  0  0  0  0  0  0  0  0  0  0  0
  1  2  1  0  0  0  0
  1 29  1  0  0  0  0
  1 30  1  0  0  0  0
  1 31  1  0  0  0  0
  2  3  1  0  0  0  0
  2 27  2  0  0  0  0
  3  4  2  0  0  0  0
  3 32  1  0  0  0  0
  4  5  1  0  0  0  0
  4 33  1  0  0  0  0
  5  6  1  0  0  0  0
  5 26  2  0  0  0  0
  6  7  1  0  0  0  0
  6 34  1  0  0  0  0
  7  8  2  0  0  0  0
  7  9  1  0  0  0  0
  9 10  1  0  0  0  0
  9 35  1  0  0  0  0
 10 11  1  0  0  0  0
 10 25  2  0  0  0  0
 11 12  2  0  0  0  0
 11 36  1  0  0  0  0
 12 13  1  0  0  0  0
 12 37  1  0  0  0  0
 13 14  1  0  0  0  0
 13 24  2  0  0  0  0
 14 15  2  0  0  0  0
 14 23  1  0  0  0  0
 15 16  1  0  0  0  0
 15 38  1  0  0  0  0
 16 17  1  0  0  0  0
 17 18  1  0  0  0  0
 17 23  2  0  0  0  0
 18 19  2  0  0  0  0
 18 39  1  0  0  0  0
 19 20  1  0  0  0  0
 19 40  1  0  0  0  0
 20 21  2  0  0  0  0
 21 22  1  0  0  0  0
 21 23  1  0  0  0  0
 22 41  1  0  0  0  0
 22 42  1  0  0  0  0
 24 25  1  0  0  0  0
 24 43  1  0  0  0  0
 25 44  1  0  0  0  0
 26 27  1  0  0  0  0
 26 45  1  0  0  0  0
 27 28  1  0  0  0  0
 28 46  1  0  0  0  0
 28 47  1  0  0  0  0
 28 48  1  0  0  0  0
M  END
$$$$
