CHEMBL1807469
 OpenBabel04072215363D

 68 72  0  0  0  0  0  0  0  0999 V2000
   -5.0818    0.8391    0.3366 C   0  0  0  0  0  0  0  0  0  0  0  0
   -5.5099    0.0493    1.5398 C   0  0  0  0  0  0  0  0  0  0  0  0
   -6.5473    0.4908    2.3697 C   0  0  0  0  0  0  0  0  0  0  0  0
   -6.9139   -0.2458    3.5021 C   0  0  0  0  0  0  0  0  0  0  0  0
   -6.2455   -1.4338    3.8139 C   0  0  0  0  0  0  0  0  0  0  0  0
   -5.2199   -1.8835    2.9750 C   0  0  0  0  0  0  0  0  0  0  0  0
   -4.2867   -3.3402    3.3924 S   0  0  0  0  0  0  0  0  0  0  0  0
   -2.9812   -3.2367    2.7690 O   0  0  0  0  0  0  0  0  0  0  0  0
   -4.4198   -3.5522    4.8167 O   0  0  0  0  0  0  0  0  0  0  0  0
   -5.1329   -4.5811    2.6651 N   0  0  0  0  0  0  0  0  0  0  0  0
   -5.2972   -4.6770    1.2652 C   0  0  0  0  0  0  0  0  0  0  0  0
   -4.3134   -5.2356    0.4555 C   0  0  0  0  0  0  0  0  0  0  0  0
   -4.5577   -5.4064   -0.9107 C   0  0  0  0  0  0  0  0  0  0  0  0
   -5.7956   -5.0500   -1.4573 C   0  0  0  0  0  0  0  0  0  0  0  0
   -6.8046   -4.5333   -0.6375 C   0  0  0  0  0  0  0  0  0  0  0  0
   -8.1547   -4.2979   -1.1502 C   0  0  0  0  0  0  0  0  0  0  0  0
   -9.3494   -4.3107   -0.3839 C   0  0  0  0  0  0  0  0  0  0  0  0
  -10.3765   -4.0429   -1.2525 C   0  0  0  0  0  0  0  0  0  0  0  0
  -11.7343   -3.9075   -0.9736 N   0  0  0  0  0  0  0  0  0  0  0  0
  -12.2657   -4.0200    0.3624 C   0  0  0  0  0  0  0  0  0  0  0  0
  -11.5497   -4.2686    1.3193 O   0  0  0  0  0  0  0  0  0  0  0  0
  -13.7262   -3.8784    0.5326 C   0  0  0  0  0  0  0  0  0  0  0  0
  -14.3265   -4.5884    1.5734 C   0  0  0  0  0  0  0  0  0  0  0  0
  -15.7039   -4.4997    1.7779 C   0  0  0  0  0  0  0  0  0  0  0  0
  -16.5220   -3.6900    0.9781 C   0  0  0  0  0  0  0  0  0  0  0  0
  -17.8704   -3.5880    1.2344 N   0  0  0  0  0  0  0  0  0  0  0  0
  -18.6638   -2.3994    0.8844 C   0  0  0  0  0  0  0  0  0  0  0  0
  -19.6187   -2.0494    2.0515 C   0  0  0  0  0  0  0  0  0  0  0  0
  -20.4913   -3.1827    2.4270 N   0  0  0  0  0  0  0  0  0  0  0  0
  -21.3736   -2.8125    3.5302 C   0  0  0  0  0  0  0  0  0  0  0  0
  -19.6469   -4.3409    2.7945 C   0  0  0  0  0  0  0  0  0  0  0  0
  -18.6836   -4.7471    1.6550 C   0  0  0  0  0  0  0  0  0  0  0  0
  -15.8858   -2.9588   -0.0396 C   0  0  0  0  0  0  0  0  0  0  0  0
  -14.5040   -3.0473   -0.2716 C   0  0  0  0  0  0  0  0  0  0  0  0
   -9.7735   -3.9493   -2.4802 N   0  0  0  0  0  0  0  0  0  0  0  0
   -8.4353   -4.0864   -2.4454 N   0  0  0  0  0  0  0  0  0  0  0  0
   -6.5309   -4.3250    0.7238 C   0  0  0  0  0  0  0  0  0  0  0  0
   -4.8435   -1.1403    1.8522 C   0  0  0  0  0  0  0  0  0  0  0  0
   -5.6807    1.7473    0.2157 H   0  0  0  0  0  0  0  0  0  0  0  0
   -5.1981    0.2335   -0.5681 H   0  0  0  0  0  0  0  0  0  0  0  0
   -4.0331    1.1374    0.4372 H   0  0  0  0  0  0  0  0  0  0  0  0
   -7.0662    1.4207    2.1514 H   0  0  0  0  0  0  0  0  0  0  0  0
   -7.7057    0.1220    4.1520 H   0  0  0  0  0  0  0  0  0  0  0  0
   -6.5161   -1.9812    4.7146 H   0  0  0  0  0  0  0  0  0  0  0  0
   -5.5381   -5.2802    3.2838 H   0  0  0  0  0  0  0  0  0  0  0  0
   -3.3639   -5.5561    0.8775 H   0  0  0  0  0  0  0  0  0  0  0  0
   -3.7938   -5.8459   -1.5487 H   0  0  0  0  0  0  0  0  0  0  0  0
   -5.9786   -5.2125   -2.5182 H   0  0  0  0  0  0  0  0  0  0  0  0
   -9.4117   -4.5033    0.6761 H   0  0  0  0  0  0  0  0  0  0  0  0
  -12.3693   -3.7557   -1.7452 H   0  0  0  0  0  0  0  0  0  0  0  0
  -13.7346   -5.2083    2.2451 H   0  0  0  0  0  0  0  0  0  0  0  0
  -16.1246   -5.0429    2.6207 H   0  0  0  0  0  0  0  0  0  0  0  0
  -19.2376   -2.5930   -0.0305 H   0  0  0  0  0  0  0  0  0  0  0  0
  -18.0314   -1.5229    0.7062 H   0  0  0  0  0  0  0  0  0  0  0  0
  -20.2305   -1.1909    1.7514 H   0  0  0  0  0  0  0  0  0  0  0  0
  -19.0152   -1.7359    2.9159 H   0  0  0  0  0  0  0  0  0  0  0  0
  -22.0141   -1.9726    3.2395 H   0  0  0  0  0  0  0  0  0  0  0  0
  -20.8193   -2.5284    4.4318 H   0  0  0  0  0  0  0  0  0  0  0  0
  -22.0403   -3.6446    3.7813 H   0  0  0  0  0  0  0  0  0  0  0  0
  -20.2836   -5.2014    3.0316 H   0  0  0  0  0  0  0  0  0  0  0  0
  -19.0556   -4.1121    3.6922 H   0  0  0  0  0  0  0  0  0  0  0  0
  -19.2621   -5.1066    0.7940 H   0  0  0  0  0  0  0  0  0  0  0  0
  -18.0815   -5.5963    1.9934 H   0  0  0  0  0  0  0  0  0  0  0  0
  -16.4700   -2.3061   -0.6852 H   0  0  0  0  0  0  0  0  0  0  0  0
  -14.0698   -2.4299   -1.0519 H   0  0  0  0  0  0  0  0  0  0  0  0
  -10.2043   -3.7953   -3.3843 H   0  0  0  0  0  0  0  0  0  0  0  0
   -7.2834   -3.9012    1.3831 H   0  0  0  0  0  0  0  0  0  0  0  0
   -4.0205   -1.4809    1.2254 H   0  0  0  0  0  0  0  0  0  0  0  0
  1  2  1  0  0  0  0
  1 39  1  0  0  0  0
  1 40  1  0  0  0  0
  1 41  1  0  0  0  0
  2  3  1  0  0  0  0
  2 38  2  0  0  0  0
  3  4  2  0  0  0  0
  3 42  1  0  0  0  0
  4  5  1  0  0  0  0
  4 43  1  0  0  0  0
  5  6  2  0  0  0  0
  5 44  1  0  0  0  0
  6  7  1  0  0  0  0
  6 38  1  0  0  0  0
  7  8  2  0  0  0  0
  7  9  2  0  0  0  0
  7 10  1  0  0  0  0
 10 11  1  0  0  0  0
 10 45  1  0  0  0  0
 11 12  1  0  0  0  0
 11 37  2  0  0  0  0
 12 13  2  0  0  0  0
 12 46  1  0  0  0  0
 13 14  1  0  0  0  0
 13 47  1  0  0  0  0
 14 15  2  0  0  0  0
 14 48  1  0  0  0  0
 15 16  1  0  0  0  0
 15 37  1  0  0  0  0
 16 17  1  0  0  0  0
 16 36  2  0  0  0  0
 17 18  2  0  0  0  0
 17 49  1  0  0  0  0
 18 19  1  0  0  0  0
 18 35  1  0  0  0  0
 19 20  1  0  0  0  0
 19 50  1  0  0  0  0
 20 21  2  0  0  0  0
 20 22  1  0  0  0  0
 22 23  1  0  0  0  0
 22 34  2  0  0  0  0
 23 24  2  0  0  0  0
 23 51  1  0  0  0  0
 24 25  1  0  0  0  0
 24 52  1  0  0  0  0
 25 26  1  0  0  0  0
 25 33  2  0  0  0  0
 26 27  1  0  0  0  0
 26 32  1  0  0  0  0
 27 28  1  0  0  0  0
 27 53  1  0  0  0  0
 27 54  1  0  0  0  0
 28 29  1  0  0  0  0
 28 55  1  0  0  0  0
 28 56  1  0  0  0  0
 29 30  1  0  0  0  0
 29 31  1  0  0  0  0
 30 57  1  0  0  0  0
 30 58  1  0  0  0  0
 30 59  1  0  0  0  0
 31 32  1  0  0  0  0
 31 60  1  0  0  0  0
 31 61  1  0  0  0  0
 32 62  1  0  0  0  0
 32 63  1  0  0  0  0
 33 34  1  0  0  0  0
 33 64  1  0  0  0  0
 34 65  1  0  0  0  0
 35 36  1  0  0  0  0
 35 66  1  0  0  0  0
 37 67  1  0  0  0  0
 38 68  1  0  0  0  0
M  END
$$$$
