CHEMBL3917723
 OpenBabel04072215373D

 67 70  0  0  0  0  0  0  0  0999 V2000
    4.7013    2.4063   -3.5563 C   0  0  0  0  0  0  0  0  0  0  0  0
    5.8079    1.8146   -2.8737 O   0  0  0  0  0  0  0  0  0  0  0  0
    5.8991    0.4656   -3.0355 C   0  0  0  0  0  0  0  0  0  0  0  0
    5.1266   -0.2226   -3.6951 O   0  0  0  0  0  0  0  0  0  0  0  0
    7.0949   -0.0812   -2.2699 C   0  0  0  0  0  0  0  0  0  0  0  0
    7.2036   -1.5155   -2.4953 N   0  0  0  0  0  0  0  0  0  0  0  0
    8.1616   -2.2637   -1.8570 C   0  0  0  0  0  0  0  0  0  0  0  0
    8.9736   -1.7774   -1.0766 O   0  0  0  0  0  0  0  0  0  0  0  0
    8.1521   -3.7280   -2.1332 C   0  0  0  0  0  0  0  0  0  0  0  0
    7.6690   -4.2640   -3.3297 C   0  0  0  0  0  0  0  0  0  0  0  0
    7.7193   -5.6495   -3.5546 C   0  0  0  0  0  0  0  0  0  0  0  0
    8.2235   -6.5227   -2.5867 C   0  0  0  0  0  0  0  0  0  0  0  0
    8.4121   -7.9042   -2.7834 N   0  0  0  0  0  0  0  0  0  0  0  0
    7.9638   -8.7866   -3.7949 C   0  0  0  0  0  0  0  0  0  0  0  0
    7.0276   -8.3852   -4.6773 N   0  0  0  0  0  0  0  0  0  0  0  0
    6.6461   -9.2688   -5.6024 C   0  0  0  0  0  0  0  0  0  0  0  0
    7.1257  -10.5033   -5.7502 N   0  0  0  0  0  0  0  0  0  0  0  0
    8.0392  -10.8930   -4.8620 C   0  0  0  0  0  0  0  0  0  0  0  0
    8.4861  -12.1944   -4.9462 C   0  0  0  0  0  0  0  0  0  0  0  0
    9.3337  -12.7779   -3.9872 C   0  0  0  0  0  0  0  0  0  0  0  0
    9.6183  -14.1215   -3.9891 O   0  0  0  0  0  0  0  0  0  0  0  0
    8.9143  -14.8837   -4.9682 C   0  0  0  0  0  0  0  0  0  0  0  0
    9.1679  -16.3779   -4.7886 C   0  0  0  0  0  0  0  0  0  0  0  0
    8.4639  -17.1847   -5.8068 N   0  0  0  0  0  0  0  0  0  0  0  0
    8.8912  -16.8414   -7.1745 C   0  0  0  0  0  0  0  0  0  0  0  0
    8.1793  -17.6803   -8.2313 C   0  0  0  0  0  0  0  0  0  0  0  0
    8.3605  -19.1645   -7.9630 C   0  0  0  0  0  0  0  0  0  0  0  0
    7.9316  -19.4925   -6.5388 C   0  0  0  0  0  0  0  0  0  0  0  0
    8.6625  -18.6133   -5.5251 C   0  0  0  0  0  0  0  0  0  0  0  0
    9.8709  -11.9693   -2.9844 C   0  0  0  0  0  0  0  0  0  0  0  0
   10.7350  -12.3110   -1.9788 O   0  0  0  0  0  0  0  0  0  0  0  0
   11.0915  -13.6784   -1.8207 C   0  0  0  0  0  0  0  0  0  0  0  0
    9.4892  -10.6211   -2.9425 C   0  0  0  0  0  0  0  0  0  0  0  0
    8.5237  -10.0832   -3.8400 C   0  0  0  0  0  0  0  0  0  0  0  0
    8.7281   -5.9627   -1.4017 C   0  0  0  0  0  0  0  0  0  0  0  0
    8.6955   -4.5847   -1.1714 C   0  0  0  0  0  0  0  0  0  0  0  0
    4.7082    3.4795   -3.3473 H   0  0  0  0  0  0  0  0  0  0  0  0
    3.7571    1.9890   -3.1919 H   0  0  0  0  0  0  0  0  0  0  0  0
    4.7973    2.2628   -4.6372 H   0  0  0  0  0  0  0  0  0  0  0  0
    6.9603    0.0962   -1.2000 H   0  0  0  0  0  0  0  0  0  0  0  0
    8.0128    0.3898   -2.6269 H   0  0  0  0  0  0  0  0  0  0  0  0
    6.4436   -1.9620   -2.9955 H   0  0  0  0  0  0  0  0  0  0  0  0
    7.2879   -3.6273   -4.1224 H   0  0  0  0  0  0  0  0  0  0  0  0
    7.3647   -6.0220   -4.5110 H   0  0  0  0  0  0  0  0  0  0  0  0
    8.4537   -8.3972   -1.8962 H   0  0  0  0  0  0  0  0  0  0  0  0
    5.8623   -8.9674   -6.2880 H   0  0  0  0  0  0  0  0  0  0  0  0
    8.0949  -12.7624   -5.7852 H   0  0  0  0  0  0  0  0  0  0  0  0
    9.2858  -14.5626   -5.9454 H   0  0  0  0  0  0  0  0  0  0  0  0
    7.8324  -14.7145   -4.8846 H   0  0  0  0  0  0  0  0  0  0  0  0
    8.8112  -16.6552   -3.7871 H   0  0  0  0  0  0  0  0  0  0  0  0
   10.2475  -16.5734   -4.7922 H   0  0  0  0  0  0  0  0  0  0  0  0
    9.9782  -16.9503   -7.2778 H   0  0  0  0  0  0  0  0  0  0  0  0
    8.6411  -15.8012   -7.4074 H   0  0  0  0  0  0  0  0  0  0  0  0
    8.5704  -17.4271   -9.2233 H   0  0  0  0  0  0  0  0  0  0  0  0
    7.1102  -17.4314   -8.2372 H   0  0  0  0  0  0  0  0  0  0  0  0
    9.4144  -19.4344   -8.1024 H   0  0  0  0  0  0  0  0  0  0  0  0
    7.7756  -19.7488   -8.6804 H   0  0  0  0  0  0  0  0  0  0  0  0
    8.1354  -20.5471   -6.3255 H   0  0  0  0  0  0  0  0  0  0  0  0
    6.8485  -19.3461   -6.4387 H   0  0  0  0  0  0  0  0  0  0  0  0
    9.7318  -18.8613   -5.5261 H   0  0  0  0  0  0  0  0  0  0  0  0
    8.2733  -18.8486   -4.5268 H   0  0  0  0  0  0  0  0  0  0  0  0
   11.7473  -13.7546   -0.9476 H   0  0  0  0  0  0  0  0  0  0  0  0
   11.6605  -14.0435   -2.6816 H   0  0  0  0  0  0  0  0  0  0  0  0
   10.2121  -14.2982   -1.6155 H   0  0  0  0  0  0  0  0  0  0  0  0
    9.9281   -9.9928   -2.1705 H   0  0  0  0  0  0  0  0  0  0  0  0
    9.1786   -6.6007   -0.6457 H   0  0  0  0  0  0  0  0  0  0  0  0
    9.1045   -4.1854   -0.2483 H   0  0  0  0  0  0  0  0  0  0  0  0
  1  2  1  0  0  0  0
  1 37  1  0  0  0  0
  1 38  1  0  0  0  0
  1 39  1  0  0  0  0
  2  3  1  0  0  0  0
  3  4  2  0  0  0  0
  3  5  1  0  0  0  0
  5  6  1  0  0  0  0
  5 40  1  0  0  0  0
  5 41  1  0  0  0  0
  6  7  1  0  0  0  0
  6 42  1  0  0  0  0
  7  8  2  0  0  0  0
  7  9  1  0  0  0  0
  9 10  1  0  0  0  0
  9 36  2  0  0  0  0
 10 11  2  0  0  0  0
 10 43  1  0  0  0  0
 11 12  1  0  0  0  0
 11 44  1  0  0  0  0
 12 13  1  0  0  0  0
 12 35  2  0  0  0  0
 13 14  1  0  0  0  0
 13 45  1  0  0  0  0
 14 15  1  0  0  0  0
 14 34  2  0  0  0  0
 15 16  2  0  0  0  0
 16 17  1  0  0  0  0
 16 46  1  0  0  0  0
 17 18  2  0  0  0  0
 18 19  1  0  0  0  0
 18 34  1  0  0  0  0
 19 20  2  0  0  0  0
 19 47  1  0  0  0  0
 20 21  1  0  0  0  0
 20 30  1  0  0  0  0
 21 22  1  0  0  0  0
 22 23  1  0  0  0  0
 22 48  1  0  0  0  0
 22 49  1  0  0  0  0
 23 24  1  0  0  0  0
 23 50  1  0  0  0  0
 23 51  1  0  0  0  0
 24 25  1  0  0  0  0
 24 29  1  0  0  0  0
 25 26  1  0  0  0  0
 25 52  1  0  0  0  0
 25 53  1  0  0  0  0
 26 27  1  0  0  0  0
 26 54  1  0  0  0  0
 26 55  1  0  0  0  0
 27 28  1  0  0  0  0
 27 56  1  0  0  0  0
 27 57  1  0  0  0  0
 28 29  1  0  0  0  0
 28 58  1  0  0  0  0
 28 59  1  0  0  0  0
 29 60  1  0  0  0  0
 29 61  1  0  0  0  0
 30 31  1  0  0  0  0
 30 33  2  0  0  0  0
 31 32  1  0  0  0  0
 32 62  1  0  0  0  0
 32 63  1  0  0  0  0
 32 64  1  0  0  0  0
 33 34  1  0  0  0  0
 33 65  1  0  0  0  0
 35 36  1  0  0  0  0
 35 66  1  0  0  0  0
 36 67  1  0  0  0  0
M  END
$$$$
