CHEMBL3109347
 OpenBabel04072215363D

 58 62  0  0  1  0  0  0  0  0999 V2000
    2.0635    4.1425   -2.7001 C   0  0  0  0  0  0  0  0  0  0  0  0
    2.4300    3.5707   -3.9449 O   0  0  0  0  0  0  0  0  0  0  0  0
    3.4663    2.6019   -3.7947 C   0  0  0  0  0  0  0  0  0  0  0  0
    3.7762    2.0371   -5.1686 C   0  0  0  0  0  0  0  0  0  0  0  0
    4.8046    1.0549   -5.0692 O   0  0  0  0  0  0  0  0  0  0  0  0
    5.1427    0.4470   -6.2536 C   0  0  0  0  0  0  0  0  0  0  0  0
    6.2244   -0.5107   -6.0947 C   0  0  0  0  0  0  0  0  0  0  0  0
    6.6787   -1.1696   -7.1717 C   0  0  0  0  0  0  0  0  0  0  0  0
    6.1138   -0.9334   -8.4278 N   0  0  0  0  0  0  0  0  0  0  0  0
    6.3859   -1.4775   -9.6753 C   0  0  0  0  0  0  0  0  0  0  0  0
    7.4095   -2.4710   -9.9689 C   0  0  0  0  0  0  0  0  0  0  0  0
    7.2686   -3.3418  -11.0353 C   0  0  0  0  0  0  0  0  0  0  0  0
    8.2473   -4.2954  -11.2255 C   0  0  0  0  0  0  0  0  0  0  0  0
    9.3140   -4.3842  -10.3279 C   0  0  0  0  0  0  0  0  0  0  0  0
   10.2485   -5.4096  -10.4840 C   0  0  0  0  0  0  0  0  0  0  0  0
   11.2509   -5.5779   -9.5443 C   0  0  0  0  0  0  0  0  0  0  0  0
   11.3499   -4.7005   -8.4676 C   0  0  0  0  0  0  0  0  0  0  0  0
   10.4545   -3.6287   -8.3199 C   0  0  0  0  0  0  0  0  0  0  0  0
   10.5455   -2.7009   -7.2854 O   0  0  0  0  0  0  0  0  0  0  0  0
   11.2606   -3.0830   -6.0859 C   0  0  2  0  0  0  0  0  0  0  0  0
   10.3844   -3.9485   -5.1910 C   0  0  0  0  0  0  0  0  0  0  0  0
    9.1928   -3.1453   -4.6874 C   0  0  0  0  0  0  0  0  0  0  0  0
    9.5545   -1.9793   -3.8975 N   0  0  0  0  0  0  0  0  0  0  0  0
   10.7673   -1.2574   -4.2706 C   0  0  0  0  0  0  0  0  0  0  0  0
   11.7548   -1.8602   -5.2882 C   0  0  2  0  0  0  0  0  0  0  0  0
   12.2632   -0.8485   -6.1634 O   0  0  0  0  0  0  0  0  0  0  0  0
    9.4042   -3.4607   -9.2545 C   0  0  0  0  0  0  0  0  0  0  0  0
    8.4671   -2.4976   -9.1217 N   0  0  0  0  0  0  0  0  0  0  0  0
    5.4336   -0.9043  -10.5077 C   0  0  0  0  0  0  0  0  0  0  0  0
    4.6249   -0.0270   -9.8454 N   0  0  0  0  0  0  0  0  0  0  0  0
    5.0538   -0.0495   -8.6044 C   0  0  0  0  0  0  0  0  0  0  0  0
    4.5908    0.6586   -7.4656 C   0  0  0  0  0  0  0  0  0  0  0  0
    1.2726    4.8745   -2.8816 H   0  0  0  0  0  0  0  0  0  0  0  0
    2.9197    4.6524   -2.2497 H   0  0  0  0  0  0  0  0  0  0  0  0
    1.6812    3.3710   -2.0260 H   0  0  0  0  0  0  0  0  0  0  0  0
    3.1423    1.7977   -3.1235 H   0  0  0  0  0  0  0  0  0  0  0  0
    4.3623    3.0647   -3.3651 H   0  0  0  0  0  0  0  0  0  0  0  0
    4.0954    2.8536   -5.8285 H   0  0  0  0  0  0  0  0  0  0  0  0
    2.8604    1.5926   -5.5777 H   0  0  0  0  0  0  0  0  0  0  0  0
    6.6399   -0.6874   -5.1102 H   0  0  0  0  0  0  0  0  0  0  0  0
    7.4800   -1.8921   -7.1111 H   0  0  0  0  0  0  0  0  0  0  0  0
    6.4010   -3.3129  -11.6860 H   0  0  0  0  0  0  0  0  0  0  0  0
    8.1452   -4.9996  -12.0484 H   0  0  0  0  0  0  0  0  0  0  0  0
   10.1854   -6.1010  -11.3215 H   0  0  0  0  0  0  0  0  0  0  0  0
   11.9553   -6.3997   -9.6424 H   0  0  0  0  0  0  0  0  0  0  0  0
   12.1508   -4.8987   -7.7665 H   0  0  0  0  0  0  0  0  0  0  0  0
   12.1795   -3.6051   -6.3557 H   0  0  0  0  0  0  0  0  0  0  0  0
   10.9666   -4.3300   -4.3427 H   0  0  0  0  0  0  0  0  0  0  0  0
   10.0050   -4.8134   -5.7462 H   0  0  0  0  0  0  0  0  0  0  0  0
    8.5677   -3.7898   -4.0630 H   0  0  0  0  0  0  0  0  0  0  0  0
    8.5702   -2.8384   -5.5299 H   0  0  0  0  0  0  0  0  0  0  0  0
    8.7712   -1.3245   -3.8662 H   0  0  0  0  0  0  0  0  0  0  0  0
   11.3256   -1.1582   -3.3271 H   0  0  0  0  0  0  0  0  0  0  0  0
   10.5187   -0.2244   -4.5397 H   0  0  0  0  0  0  0  0  0  0  0  0
   12.6170   -2.2043   -4.7014 H   0  0  0  0  0  0  0  0  0  0  0  0
   11.7219   -0.8859   -6.9760 H   0  0  0  0  0  0  0  0  0  0  0  0
    5.2905   -1.0844  -11.5650 H   0  0  0  0  0  0  0  0  0  0  0  0
    3.7831    1.3557   -7.6390 H   0  0  0  0  0  0  0  0  0  0  0  0
  1  2  1  0  0  0  0
  1 33  1  0  0  0  0
  1 34  1  0  0  0  0
  1 35  1  0  0  0  0
  2  3  1  0  0  0  0
  3  4  1  0  0  0  0
  3 36  1  0  0  0  0
  3 37  1  0  0  0  0
  4  5  1  0  0  0  0
  4 38  1  0  0  0  0
  4 39  1  0  0  0  0
  5  6  1  0  0  0  0
  6  7  1  0  0  0  0
  6 32  2  0  0  0  0
  7  8  2  0  0  0  0
  7 40  1  0  0  0  0
  8  9  1  0  0  0  0
  8 41  1  0  0  0  0
  9 10  1  0  0  0  0
  9 31  1  0  0  0  0
 10 11  1  0  0  0  0
 10 29  2  0  0  0  0
 11 12  1  0  0  0  0
 11 28  2  0  0  0  0
 12 13  2  0  0  0  0
 12 42  1  0  0  0  0
 13 14  1  0  0  0  0
 13 43  1  0  0  0  0
 14 15  1  0  0  0  0
 14 27  2  0  0  0  0
 15 16  2  0  0  0  0
 15 44  1  0  0  0  0
 16 17  1  0  0  0  0
 16 45  1  0  0  0  0
 17 18  2  0  0  0  0
 17 46  1  0  0  0  0
 18 19  1  0  0  0  0
 18 27  1  0  0  0  0
 20 21  1  0  0  0  0
 20 25  1  0  0  0  0
 20 19  1  0  0  0  0
 20 47  1  6  0  0  0
 21 22  1  0  0  0  0
 21 48  1  0  0  0  0
 21 49  1  0  0  0  0
 22 23  1  0  0  0  0
 22 50  1  0  0  0  0
 22 51  1  0  0  0  0
 23 24  1  0  0  0  0
 23 52  1  0  0  0  0
 24 25  1  0  0  0  0
 24 53  1  0  0  0  0
 24 54  1  0  0  0  0
 25 26  1  0  0  0  0
 25 55  1  1  0  0  0
 26 56  1  0  0  0  0
 27 28  1  0  0  0  0
 29 30  1  0  0  0  0
 29 57  1  0  0  0  0
 30 31  2  0  0  0  0
 31 32  1  0  0  0  0
 32 58  1  0  0  0  0
M  END
$$$$
