CHEMBL385055
 OpenBabel04072215373D

 65 69  0  0  0  0  0  0  0  0999 V2000
    2.4946   -2.7531    1.7461 C   0  0  0  0  0  0  0  0  0  0  0  0
    2.5223   -1.3751    1.3110 N   0  0  0  0  0  0  0  0  0  0  0  0
    3.2358   -0.5373    2.1572 C   0  0  0  0  0  0  0  0  0  0  0  0
    4.3310   -0.9767    2.7896 N   0  0  0  0  0  0  0  0  0  0  0  0
    4.9531   -0.1006    3.6003 C   0  0  0  0  0  0  0  0  0  0  0  0
    4.5164    1.1956    3.8158 C   0  0  0  0  0  0  0  0  0  0  0  0
    5.1638    2.1264    4.6635 C   0  0  0  0  0  0  0  0  0  0  0  0
    4.6420    3.4166    4.8860 C   0  0  0  0  0  0  0  0  0  0  0  0
    5.3338    4.3869    5.7876 C   0  0  0  0  0  0  0  0  0  0  0  0
    5.9888    3.8919    6.9340 C   0  0  0  0  0  0  0  0  0  0  0  0
    6.7252    4.7097    7.8100 C   0  0  0  0  0  0  0  0  0  0  0  0
    7.4068    4.0666    8.9656 C   0  0  0  0  0  0  0  0  0  0  0  0
    7.7305    2.8896    8.8510 O   0  0  0  0  0  0  0  0  0  0  0  0
    7.5527    4.8504   10.0982 N   0  0  0  0  0  0  0  0  0  0  0  0
    8.1938    4.4828   11.3067 C   0  0  0  0  0  0  0  0  0  0  0  0
    9.0789    3.3923   11.3331 C   0  0  0  0  0  0  0  0  0  0  0  0
    9.7923    3.0404   12.4860 C   0  0  0  0  0  0  0  0  0  0  0  0
   10.7394    1.8652   12.4751 C   0  0  0  0  0  0  0  0  0  0  0  0
   10.8200    1.2327   11.2720 F   0  0  0  0  0  0  0  0  0  0  0  0
   12.0149    2.2254   12.7895 F   0  0  0  0  0  0  0  0  0  0  0  0
   10.3889    0.9072   13.3771 F   0  0  0  0  0  0  0  0  0  0  0  0
    9.6195    3.8109   13.6369 C   0  0  0  0  0  0  0  0  0  0  0  0
    8.7602    4.9149   13.6241 C   0  0  0  0  0  0  0  0  0  0  0  0
    8.0255    5.2650   12.4756 C   0  0  0  0  0  0  0  0  0  0  0  0
    7.1420    6.3664   12.5342 N   0  0  0  0  0  0  0  0  0  0  0  0
    5.7570    6.4460   12.0527 C   0  0  0  0  0  0  0  0  0  0  0  0
    5.5587    7.6422   13.0303 C   0  0  0  0  0  0  0  0  0  0  0  0
    5.4794    9.0107   12.3569 C   0  0  0  0  0  0  0  0  0  0  0  0
    4.4652    7.4531   14.0758 C   0  0  0  0  0  0  0  0  0  0  0  0
    6.9741    7.2754   13.5379 C   0  0  0  0  0  0  0  0  0  0  0  0
    7.6733    7.6401   14.4593 O   0  0  0  0  0  0  0  0  0  0  0  0
    6.8306    6.0723    7.5470 C   0  0  0  0  0  0  0  0  0  0  0  0
    6.1711    6.6006    6.4424 C   0  0  0  0  0  0  0  0  0  0  0  0
    5.4241    5.7866    5.5604 C   0  0  0  0  0  0  0  0  0  0  0  0
    4.7681    6.4949    4.4014 C   0  0  0  0  0  0  0  0  0  0  0  0
    3.4391    3.7052    4.2279 C   0  0  0  0  0  0  0  0  0  0  0  0
    2.8358    2.7980    3.3437 C   0  0  0  0  0  0  0  0  0  0  0  0
    3.3558    1.5355    3.1287 C   0  0  0  0  0  0  0  0  0  0  0  0
    2.7245    0.6910    2.3045 N   0  0  0  0  0  0  0  0  0  0  0  0
    1.7525   -3.3010    1.1572 H   0  0  0  0  0  0  0  0  0  0  0  0
    2.2109   -2.8447    2.8011 H   0  0  0  0  0  0  0  0  0  0  0  0
    3.4635   -3.2379    1.5870 H   0  0  0  0  0  0  0  0  0  0  0  0
    1.6151   -0.9370    1.1966 H   0  0  0  0  0  0  0  0  0  0  0  0
    5.8354   -0.4926    4.0981 H   0  0  0  0  0  0  0  0  0  0  0  0
    6.0889    1.8173    5.1496 H   0  0  0  0  0  0  0  0  0  0  0  0
    5.9333    2.8269    7.1765 H   0  0  0  0  0  0  0  0  0  0  0  0
    7.1184    5.7581   10.0985 H   0  0  0  0  0  0  0  0  0  0  0  0
    9.2691    2.8104   10.4350 H   0  0  0  0  0  0  0  0  0  0  0  0
   10.1555    3.5604   14.5511 H   0  0  0  0  0  0  0  0  0  0  0  0
    8.6568    5.4749   14.5514 H   0  0  0  0  0  0  0  0  0  0  0  0
    5.1702    5.5468   12.2671 H   0  0  0  0  0  0  0  0  0  0  0  0
    5.6510    6.7161   10.9984 H   0  0  0  0  0  0  0  0  0  0  0  0
    4.4793    9.1865   11.9459 H   0  0  0  0  0  0  0  0  0  0  0  0
    6.1945    9.0943   11.5311 H   0  0  0  0  0  0  0  0  0  0  0  0
    5.6991    9.8108   13.0708 H   0  0  0  0  0  0  0  0  0  0  0  0
    3.4729    7.6217   13.6429 H   0  0  0  0  0  0  0  0  0  0  0  0
    4.5954    8.1561   14.9054 H   0  0  0  0  0  0  0  0  0  0  0  0
    4.4780    6.4403   14.4939 H   0  0  0  0  0  0  0  0  0  0  0  0
    7.4426    6.7257    8.1591 H   0  0  0  0  0  0  0  0  0  0  0  0
    6.2624    7.6695    6.2490 H   0  0  0  0  0  0  0  0  0  0  0  0
    5.0878    7.5407    4.3346 H   0  0  0  0  0  0  0  0  0  0  0  0
    3.6839    6.5265    4.5384 H   0  0  0  0  0  0  0  0  0  0  0  0
    5.0274    6.0191    3.4518 H   0  0  0  0  0  0  0  0  0  0  0  0
    2.9197    4.6421    4.3897 H   0  0  0  0  0  0  0  0  0  0  0  0
    1.9243    3.0869    2.8254 H   0  0  0  0  0  0  0  0  0  0  0  0
  1  2  1  0  0  0  0
  1 40  1  0  0  0  0
  1 41  1  0  0  0  0
  1 42  1  0  0  0  0
  2  3  1  0  0  0  0
  2 43  1  0  0  0  0
  3  4  1  0  0  0  0
  3 39  2  0  0  0  0
  4  5  2  0  0  0  0
  5  6  1  0  0  0  0
  5 44  1  0  0  0  0
  6  7  1  0  0  0  0
  6 38  2  0  0  0  0
  7  8  2  0  0  0  0
  7 45  1  0  0  0  0
  8  9  1  0  0  0  0
  8 36  1  0  0  0  0
  9 10  1  0  0  0  0
  9 34  2  0  0  0  0
 10 11  2  0  0  0  0
 10 46  1  0  0  0  0
 11 12  1  0  0  0  0
 11 32  1  0  0  0  0
 12 13  2  0  0  0  0
 12 14  1  0  0  0  0
 14 15  1  0  0  0  0
 14 47  1  0  0  0  0
 15 16  1  0  0  0  0
 15 24  2  0  0  0  0
 16 17  2  0  0  0  0
 16 48  1  0  0  0  0
 17 18  1  0  0  0  0
 17 22  1  0  0  0  0
 18 19  1  0  0  0  0
 18 20  1  0  0  0  0
 18 21  1  0  0  0  0
 22 23  2  0  0  0  0
 22 49  1  0  0  0  0
 23 24  1  0  0  0  0
 23 50  1  0  0  0  0
 24 25  1  0  0  0  0
 25 26  1  0  0  0  0
 25 30  1  0  0  0  0
 26 27  1  0  0  0  0
 26 51  1  0  0  0  0
 26 52  1  0  0  0  0
 27 28  1  0  0  0  0
 27 29  1  0  0  0  0
 27 30  1  0  0  0  0
 28 53  1  0  0  0  0
 28 54  1  0  0  0  0
 28 55  1  0  0  0  0
 29 56  1  0  0  0  0
 29 57  1  0  0  0  0
 29 58  1  0  0  0  0
 30 31  2  0  0  0  0
 32 33  2  0  0  0  0
 32 59  1  0  0  0  0
 33 34  1  0  0  0  0
 33 60  1  0  0  0  0
 34 35  1  0  0  0  0
 35 61  1  0  0  0  0
 35 62  1  0  0  0  0
 35 63  1  0  0  0  0
 36 37  2  0  0  0  0
 36 64  1  0  0  0  0
 37 38  1  0  0  0  0
 37 65  1  0  0  0  0
 38 39  1  0  0  0  0
M  END
$$$$
