CHEMBL3128230
 OpenBabel04072215363D

 58 62  0  0  0  0  0  0  0  0999 V2000
   -1.7662   -1.5592    0.3340 O   0  0  0  0  0  0  0  0  0  0  0  0
   -2.0664   -1.7515    1.5055 C   0  0  0  0  0  0  0  0  0  0  0  0
   -1.2481   -2.2985    2.4885 N   0  0  0  0  0  0  0  0  0  0  0  0
    0.1088   -2.6666    2.2875 C   0  0  0  0  0  0  0  0  0  0  0  0
    0.8468   -2.2184    1.1892 C   0  0  0  0  0  0  0  0  0  0  0  0
    2.1493   -2.6602    0.9656 C   0  0  0  0  0  0  0  0  0  0  0  0
    2.7509   -3.5382    1.8605 C   0  0  0  0  0  0  0  0  0  0  0  0
    2.0647   -3.9582    3.0083 C   0  0  0  0  0  0  0  0  0  0  0  0
    2.7472   -4.8878    3.9965 C   0  0  0  0  0  0  0  0  0  0  0  0
    2.0087   -6.1324    4.0506 N   0  0  0  0  0  0  0  0  0  0  0  0
    2.4507   -7.1183    4.9239 C   0  0  0  0  0  0  0  0  0  0  0  0
    3.1595   -6.8132    6.0377 N   0  0  0  0  0  0  0  0  0  0  0  0
    3.4943   -7.8122    6.8873 C   0  0  0  0  0  0  0  0  0  0  0  0
    3.2171   -9.1254    6.7815 N   0  0  0  0  0  0  0  0  0  0  0  0
    2.5190   -9.3932    5.6662 C   0  0  0  0  0  0  0  0  0  0  0  0
    2.1277   -8.4665    4.7138 C   0  0  0  0  0  0  0  0  0  0  0  0
    1.4552   -9.2256    3.7382 C   0  0  0  0  0  0  0  0  0  0  0  0
    1.3980  -10.5231    4.0343 N   0  0  0  0  0  0  0  0  0  0  0  0
    2.0227  -10.6022    5.2376 N   0  0  0  0  0  0  0  0  0  0  0  0
    2.1160  -11.9096    5.8689 C   0  0  0  0  0  0  0  0  0  0  0  0
    2.0775  -11.9067    7.3944 C   0  0  0  0  0  0  0  0  0  0  0  0
    2.1341  -13.3023    7.9684 C   0  0  0  0  0  0  0  0  0  0  0  0
    3.3737  -13.8991    8.2389 C   0  0  0  0  0  0  0  0  0  0  0  0
    3.4378  -15.1725    8.8049 C   0  0  0  0  0  0  0  0  0  0  0  0
    2.2647  -15.8645    9.0977 C   0  0  0  0  0  0  0  0  0  0  0  0
    1.0274  -15.2893    8.8118 C   0  0  0  0  0  0  0  0  0  0  0  0
    0.9605  -14.0150    8.2447 C   0  0  0  0  0  0  0  0  0  0  0  0
    0.7378   -3.5133    3.2140 C   0  0  0  0  0  0  0  0  0  0  0  0
   -3.4630   -1.4230    1.8883 C   0  0  0  0  0  0  0  0  0  0  0  0
   -4.4544   -1.5837    0.9029 C   0  0  0  0  0  0  0  0  0  0  0  0
   -5.7712   -1.2042    1.1562 C   0  0  0  0  0  0  0  0  0  0  0  0
   -6.0916   -0.6552    2.3902 C   0  0  0  0  0  0  0  0  0  0  0  0
   -7.3512   -0.2685    2.6298 F   0  0  0  0  0  0  0  0  0  0  0  0
   -5.1203   -0.4834    3.3753 C   0  0  0  0  0  0  0  0  0  0  0  0
   -3.7973   -0.8676    3.1284 C   0  0  0  0  0  0  0  0  0  0  0  0
   -1.6807   -2.6028    3.3503 H   0  0  0  0  0  0  0  0  0  0  0  0
    0.4345   -1.5103    0.4772 H   0  0  0  0  0  0  0  0  0  0  0  0
    2.6838   -2.3144    0.0845 H   0  0  0  0  0  0  0  0  0  0  0  0
    3.7608   -3.8843    1.6537 H   0  0  0  0  0  0  0  0  0  0  0  0
    2.7965   -4.3886    4.9718 H   0  0  0  0  0  0  0  0  0  0  0  0
    3.7773   -5.0837    3.6690 H   0  0  0  0  0  0  0  0  0  0  0  0
    1.7672   -6.4958    3.1336 H   0  0  0  0  0  0  0  0  0  0  0  0
    4.0488   -7.5158    7.7727 H   0  0  0  0  0  0  0  0  0  0  0  0
    1.0072   -8.8775    2.8157 H   0  0  0  0  0  0  0  0  0  0  0  0
    3.0318  -12.3754    5.4881 H   0  0  0  0  0  0  0  0  0  0  0  0
    1.2690  -12.4973    5.4907 H   0  0  0  0  0  0  0  0  0  0  0  0
    1.1749  -11.3962    7.7534 H   0  0  0  0  0  0  0  0  0  0  0  0
    2.9233  -11.3463    7.8063 H   0  0  0  0  0  0  0  0  0  0  0  0
    4.2986  -13.3678    8.0243 H   0  0  0  0  0  0  0  0  0  0  0  0
    4.4033  -15.6204    9.0252 H   0  0  0  0  0  0  0  0  0  0  0  0
    2.3150  -16.8512    9.5505 H   0  0  0  0  0  0  0  0  0  0  0  0
    0.1131  -15.8316    9.0386 H   0  0  0  0  0  0  0  0  0  0  0  0
   -0.0138  -13.5795    8.0338 H   0  0  0  0  0  0  0  0  0  0  0  0
    0.2003   -3.8701    4.0904 H   0  0  0  0  0  0  0  0  0  0  0  0
   -4.1913   -1.9878   -0.0737 H   0  0  0  0  0  0  0  0  0  0  0  0
   -6.5356   -1.3160    0.3937 H   0  0  0  0  0  0  0  0  0  0  0  0
   -5.4008   -0.0268    4.3199 H   0  0  0  0  0  0  0  0  0  0  0  0
   -3.0394   -0.6810    3.8840 H   0  0  0  0  0  0  0  0  0  0  0  0
  1  2  2  0  0  0  0
  2  3  1  0  0  0  0
  2 29  1  0  0  0  0
  3  4  1  0  0  0  0
  3 36  1  0  0  0  0
  4  5  1  0  0  0  0
  4 28  2  0  0  0  0
  5  6  2  0  0  0  0
  5 37  1  0  0  0  0
  6  7  1  0  0  0  0
  6 38  1  0  0  0  0
  7  8  2  0  0  0  0
  7 39  1  0  0  0  0
  8  9  1  0  0  0  0
  8 28  1  0  0  0  0
  9 10  1  0  0  0  0
  9 40  1  0  0  0  0
  9 41  1  0  0  0  0
 10 11  1  0  0  0  0
 10 42  1  0  0  0  0
 11 12  1  0  0  0  0
 11 16  2  0  0  0  0
 12 13  2  0  0  0  0
 13 14  1  0  0  0  0
 13 43  1  0  0  0  0
 14 15  2  0  0  0  0
 15 16  1  0  0  0  0
 15 19  1  0  0  0  0
 16 17  1  0  0  0  0
 17 18  2  0  0  0  0
 17 44  1  0  0  0  0
 18 19  1  0  0  0  0
 19 20  1  0  0  0  0
 20 21  1  0  0  0  0
 20 45  1  0  0  0  0
 20 46  1  0  0  0  0
 21 22  1  0  0  0  0
 21 47  1  0  0  0  0
 21 48  1  0  0  0  0
 22 23  1  0  0  0  0
 22 27  2  0  0  0  0
 23 24  2  0  0  0  0
 23 49  1  0  0  0  0
 24 25  1  0  0  0  0
 24 50  1  0  0  0  0
 25 26  2  0  0  0  0
 25 51  1  0  0  0  0
 26 27  1  0  0  0  0
 26 52  1  0  0  0  0
 27 53  1  0  0  0  0
 28 54  1  0  0  0  0
 29 30  1  0  0  0  0
 29 35  2  0  0  0  0
 30 31  2  0  0  0  0
 30 55  1  0  0  0  0
 31 32  1  0  0  0  0
 31 56  1  0  0  0  0
 32 33  1  0  0  0  0
 32 34  2  0  0  0  0
 34 35  1  0  0  0  0
 34 57  1  0  0  0  0
 35 58  1  0  0  0  0
M  END
$$$$
