CHEMBL496360
 OpenBabel04072215383D

 57 61  0  0  0  0  0  0  0  0999 V2000
    3.9706    2.5737    0.5331 C   0  0  0  0  0  0  0  0  0  0  0  0
    4.5550    1.2491    1.0016 C   0  0  0  0  0  0  0  0  0  0  0  0
    4.6183    1.0968    2.4893 C   0  0  0  0  0  0  0  0  0  0  0  0
    4.7830    2.1770    3.2641 N   0  0  0  0  0  0  0  0  0  0  0  0
    4.7014    1.7103    4.5164 N   0  0  0  0  0  0  0  0  0  0  0  0
    4.8045    2.5734    5.5536 N   0  0  0  0  0  0  0  0  0  0  0  0
    4.6923    1.9950    6.7036 C   0  0  0  0  0  0  0  0  0  0  0  0
    4.4680    0.5504    6.9410 C   0  0  0  0  0  0  0  0  0  0  0  0
    4.3888   -0.2374    5.8637 C   0  0  0  0  0  0  0  0  0  0  0  0
    4.5193    0.3454    4.5755 C   0  0  0  0  0  0  0  0  0  0  0  0
    4.5167   -0.0986    3.2591 C   0  0  0  0  0  0  0  0  0  0  0  0
    4.3958   -1.4856    2.8399 C   0  0  0  0  0  0  0  0  0  0  0  0
    5.0145   -1.9802    1.7143 C   0  0  0  0  0  0  0  0  0  0  0  0
    4.8523   -3.3258    1.4913 C   0  0  0  0  0  0  0  0  0  0  0  0
    4.1537   -4.1455    2.3003 N   0  0  0  0  0  0  0  0  0  0  0  0
    3.5303   -3.5667    3.3305 C   0  0  0  0  0  0  0  0  0  0  0  0
    2.7070   -4.3442    4.1385 N   0  0  0  0  0  0  0  0  0  0  0  0
    1.5870   -3.8883    4.8393 C   0  0  0  0  0  0  0  0  0  0  0  0
    0.8360   -2.8102    4.3571 C   0  0  0  0  0  0  0  0  0  0  0  0
   -0.1775   -2.2357    5.1148 C   0  0  0  0  0  0  0  0  0  0  0  0
   -0.4877   -2.7105    6.3898 C   0  0  0  0  0  0  0  0  0  0  0  0
   -1.5127   -2.1234    7.0989 N   0  0  0  0  0  0  0  0  0  0  0  0
   -2.2651   -2.8550    8.1192 C   0  0  0  0  0  0  0  0  0  0  0  0
   -3.7283   -2.3662    8.0900 C   0  0  0  0  0  0  0  0  0  0  0  0
   -3.8539   -0.9066    8.2917 N   0  0  0  0  0  0  0  0  0  0  0  0
   -5.2544   -0.5002    8.2268 C   0  0  0  0  0  0  0  0  0  0  0  0
   -3.0615   -0.2079    7.2512 C   0  0  0  0  0  0  0  0  0  0  0  0
   -1.5816   -0.6570    7.2298 C   0  0  0  0  0  0  0  0  0  0  0  0
    0.2396   -3.8161    6.8544 C   0  0  0  0  0  0  0  0  0  0  0  0
    1.2638   -4.4003    6.0926 C   0  0  0  0  0  0  0  0  0  0  0  0
    3.6464   -2.2642    3.6278 N   0  0  0  0  0  0  0  0  0  0  0  0
    3.8714    2.5811   -0.5549 H   0  0  0  0  0  0  0  0  0  0  0  0
    4.6109    3.4132    0.8215 H   0  0  0  0  0  0  0  0  0  0  0  0
    2.9769    2.7397    0.9686 H   0  0  0  0  0  0  0  0  0  0  0  0
    5.5622    1.1283    0.5867 H   0  0  0  0  0  0  0  0  0  0  0  0
    3.9335    0.4479    0.5810 H   0  0  0  0  0  0  0  0  0  0  0  0
    4.7624    2.6100    7.6148 H   0  0  0  0  0  0  0  0  0  0  0  0
    4.3645    0.1879    7.9544 H   0  0  0  0  0  0  0  0  0  0  0  0
    4.2057   -1.3031    5.9609 H   0  0  0  0  0  0  0  0  0  0  0  0
    5.6079   -1.3703    1.0521 H   0  0  0  0  0  0  0  0  0  0  0  0
    5.2954   -3.8027    0.6216 H   0  0  0  0  0  0  0  0  0  0  0  0
    3.0176   -5.2937    4.2418 H   0  0  0  0  0  0  0  0  0  0  0  0
    1.0333   -2.3964    3.3711 H   0  0  0  0  0  0  0  0  0  0  0  0
   -0.7440   -1.4206    4.6743 H   0  0  0  0  0  0  0  0  0  0  0  0
   -1.8205   -2.6929    9.1085 H   0  0  0  0  0  0  0  0  0  0  0  0
   -2.2687   -3.9327    7.9186 H   0  0  0  0  0  0  0  0  0  0  0  0
   -4.2839   -2.8995    8.8804 H   0  0  0  0  0  0  0  0  0  0  0  0
   -4.1768   -2.6565    7.1307 H   0  0  0  0  0  0  0  0  0  0  0  0
   -5.8320   -1.0053    9.0089 H   0  0  0  0  0  0  0  0  0  0  0  0
   -5.7114   -0.7311    7.2576 H   0  0  0  0  0  0  0  0  0  0  0  0
   -5.3489    0.5754    8.4073 H   0  0  0  0  0  0  0  0  0  0  0  0
   -3.0923    0.8730    7.4282 H   0  0  0  0  0  0  0  0  0  0  0  0
   -3.4941   -0.3909    6.2581 H   0  0  0  0  0  0  0  0  0  0  0  0
   -1.0844   -0.3513    8.1596 H   0  0  0  0  0  0  0  0  0  0  0  0
   -1.0736   -0.1294    6.4157 H   0  0  0  0  0  0  0  0  0  0  0  0
    0.0471   -4.2213    7.8433 H   0  0  0  0  0  0  0  0  0  0  0  0
    1.8256   -5.2302    6.5102 H   0  0  0  0  0  0  0  0  0  0  0  0
  1  2  1  0  0  0  0
  1 32  1  0  0  0  0
  1 33  1  0  0  0  0
  1 34  1  0  0  0  0
  2  3  1  0  0  0  0
  2 35  1  0  0  0  0
  2 36  1  0  0  0  0
  3  4  2  0  0  0  0
  3 11  1  0  0  0  0
  4  5  1  0  0  0  0
  5  6  1  0  0  0  0
  5 10  1  0  0  0  0
  6  7  2  0  0  0  0
  7  8  1  0  0  0  0
  7 37  1  0  0  0  0
  8  9  2  0  0  0  0
  8 38  1  0  0  0  0
  9 10  1  0  0  0  0
  9 39  1  0  0  0  0
 10 11  2  0  0  0  0
 11 12  1  0  0  0  0
 12 13  1  0  0  0  0
 12 31  2  0  0  0  0
 13 14  2  0  0  0  0
 13 40  1  0  0  0  0
 14 15  1  0  0  0  0
 14 41  1  0  0  0  0
 15 16  2  0  0  0  0
 16 17  1  0  0  0  0
 16 31  1  0  0  0  0
 17 18  1  0  0  0  0
 17 42  1  0  0  0  0
 18 19  1  0  0  0  0
 18 30  2  0  0  0  0
 19 20  2  0  0  0  0
 19 43  1  0  0  0  0
 20 21  1  0  0  0  0
 20 44  1  0  0  0  0
 21 22  1  0  0  0  0
 21 29  2  0  0  0  0
 22 23  1  0  0  0  0
 22 28  1  0  0  0  0
 23 24  1  0  0  0  0
 23 45  1  0  0  0  0
 23 46  1  0  0  0  0
 24 25  1  0  0  0  0
 24 47  1  0  0  0  0
 24 48  1  0  0  0  0
 25 26  1  0  0  0  0
 25 27  1  0  0  0  0
 26 49  1  0  0  0  0
 26 50  1  0  0  0  0
 26 51  1  0  0  0  0
 27 28  1  0  0  0  0
 27 52  1  0  0  0  0
 27 53  1  0  0  0  0
 28 54  1  0  0  0  0
 28 55  1  0  0  0  0
 29 30  1  0  0  0  0
 29 56  1  0  0  0  0
 30 57  1  0  0  0  0
M  END
$$$$
