CHEMBL2023488
 OpenBabel04072215363D

 60 63  0  0  0  0  0  0  0  0999 V2000
    3.1999   -0.5557   -1.0762 C   0  0  0  0  0  0  0  0  0  0  0  0
    2.3036   -0.3771    0.0424 O   0  0  0  0  0  0  0  0  0  0  0  0
    2.9220    0.3134    1.0536 C   0  0  0  0  0  0  0  0  0  0  0  0
    2.3796   -0.1006    2.2643 C   0  0  0  0  0  0  0  0  0  0  0  0
    2.9525    0.1116    3.4564 C   0  0  0  0  0  0  0  0  0  0  0  0
    2.1602   -0.2677    4.5140 O   0  0  0  0  0  0  0  0  0  0  0  0
    2.3922   -0.2142    5.9547 C   0  0  0  0  0  0  0  0  0  0  0  0
    3.7451   -0.3001    6.9883 C   0  0  0  0  0  0  0  0  0  0  0  0
    3.8472   -0.8914    8.2377 C   0  0  0  0  0  0  0  0  0  0  0  0
    2.6394   -1.0990    7.9436 N   0  0  0  0  0  0  0  0  0  0  0  0
    1.3984   -1.3290    7.6733 C   0  0  0  0  0  0  0  0  0  0  0  0
    0.6959   -2.1461    8.4413 C   0  0  0  0  0  0  0  0  0  0  0  0
   -0.5710   -2.4162    8.0440 C   0  0  0  0  0  0  0  0  0  0  0  0
   -1.3397   -3.1393    8.9172 O   0  0  0  0  0  0  0  0  0  0  0  0
   -1.0273   -2.9551   10.3046 C   0  0  0  0  0  0  0  0  0  0  0  0
   -1.0142   -1.9426    6.7746 C   0  0  0  0  0  0  0  0  0  0  0  0
   -2.2241   -2.2645    6.2004 O   0  0  0  0  0  0  0  0  0  0  0  0
   -3.0289   -3.1367    6.9948 C   0  0  0  0  0  0  0  0  0  0  0  0
   -0.1569   -1.1200    5.9821 C   0  0  0  0  0  0  0  0  0  0  0  0
    1.1478   -0.8024    6.4678 C   0  0  0  0  0  0  0  0  0  0  0  0
    4.1741    0.8391    3.4168 C   0  0  0  0  0  0  0  0  0  0  0  0
    4.7208    1.3618    2.1629 C   0  0  0  0  0  0  0  0  0  0  0  0
    4.0448    1.1663    0.9307 C   0  0  0  0  0  0  0  0  0  0  0  0
    4.4779    1.9165   -0.4014 C   0  0  0  0  0  0  0  0  0  0  0  0
    5.1162    3.3191   -0.2142 C   0  0  0  0  0  0  0  0  0  0  0  0
    6.2524    3.5173   -0.6163 O   0  0  0  0  0  0  0  0  0  0  0  0
    4.5296    4.4111    0.3906 N   0  0  0  0  0  0  0  0  0  0  0  0
    5.3257    5.5976    0.4582 C   0  0  0  0  0  0  0  0  0  0  0  0
    5.7093    6.2469    1.6149 C   0  0  0  0  0  0  0  0  0  0  0  0
    6.5651    7.2525    1.2405 N   0  0  0  0  0  0  0  0  0  0  0  0
    7.2557    8.2003    2.0839 C   0  0  0  0  0  0  0  0  0  0  0  0
    6.7410    7.3487   -0.0811 N   0  0  0  0  0  0  0  0  0  0  0  0
    6.0152    6.3402   -0.5822 C   0  0  0  0  0  0  0  0  0  0  0  0
    6.0009    6.1752   -2.0632 C   0  0  0  0  0  0  0  0  0  0  0  0
    2.8180   -1.3806   -1.6745 H   0  0  0  0  0  0  0  0  0  0  0  0
    4.2280   -0.7727   -0.7450 H   0  0  0  0  0  0  0  0  0  0  0  0
    3.2256    0.3169   -1.7321 H   0  0  0  0  0  0  0  0  0  0  0  0
    1.4437   -0.6165    2.2908 H   0  0  0  0  0  0  0  0  0  0  0  0
    4.6867    0.2210    6.8077 H   0  0  0  0  0  0  0  0  0  0  0  0
    3.7174   -1.4260    9.1880 H   0  0  0  0  0  0  0  0  0  0  0  0
    1.2193   -2.5477    9.2889 H   0  0  0  0  0  0  0  0  0  0  0  0
   -1.7406   -3.5226   10.8935 H   0  0  0  0  0  0  0  0  0  0  0  0
   -1.1075   -1.8977   10.6020 H   0  0  0  0  0  0  0  0  0  0  0  0
   -0.0228   -3.3420   10.5282 H   0  0  0  0  0  0  0  0  0  0  0  0
   -3.9506   -3.3761    6.4665 H   0  0  0  0  0  0  0  0  0  0  0  0
   -3.3240   -2.6345    7.9241 H   0  0  0  0  0  0  0  0  0  0  0  0
   -2.5122   -4.0881    7.1855 H   0  0  0  0  0  0  0  0  0  0  0  0
   -0.4470   -0.7718    4.9901 H   0  0  0  0  0  0  0  0  0  0  0  0
    4.7489    1.0558    4.3226 H   0  0  0  0  0  0  0  0  0  0  0  0
    5.6757    1.9051    2.1809 H   0  0  0  0  0  0  0  0  0  0  0  0
    3.6259    1.9896   -1.0885 H   0  0  0  0  0  0  0  0  0  0  0  0
    5.2524    1.3065   -0.8983 H   0  0  0  0  0  0  0  0  0  0  0  0
    3.8025    4.2888    1.0793 H   0  0  0  0  0  0  0  0  0  0  0  0
    5.5331    6.0394    2.6584 H   0  0  0  0  0  0  0  0  0  0  0  0
    7.0309    7.9918    3.1306 H   0  0  0  0  0  0  0  0  0  0  0  0
    6.9152    9.2058    1.8183 H   0  0  0  0  0  0  0  0  0  0  0  0
    8.3329    8.1156    1.9064 H   0  0  0  0  0  0  0  0  0  0  0  0
    6.5215    6.9861   -2.5813 H   0  0  0  0  0  0  0  0  0  0  0  0
    4.9764    6.1091   -2.4348 H   0  0  0  0  0  0  0  0  0  0  0  0
    6.5354    5.2890   -2.3830 H   0  0  0  0  0  0  0  0  0  0  0  0
  1  2  1  0  0  0  0
  1 35  1  0  0  0  0
  1 36  1  0  0  0  0
  1 37  1  0  0  0  0
  2  3  1  0  0  0  0
  3  4  1  0  0  0  0
  3 23  2  0  0  0  0
  4  5  2  0  0  0  0
  4 38  1  0  0  0  0
  5  6  1  0  0  0  0
  5 21  1  0  0  0  0
  6  7  1  0  0  0  0
  7  8  1  0  0  0  0
  7 20  2  0  0  0  0
  8  9  2  0  0  0  0
  8 39  1  0  0  0  0
  9 10  1  0  0  0  0
  9 40  1  0  0  0  0
 10 11  2  0  0  0  0
 11 12  1  0  0  0  0
 11 20  1  0  0  0  0
 12 13  2  0  0  0  0
 12 41  1  0  0  0  0
 13 14  1  0  0  0  0
 13 16  1  0  0  0  0
 14 15  1  0  0  0  0
 15 42  1  0  0  0  0
 15 43  1  0  0  0  0
 15 44  1  0  0  0  0
 16 17  1  0  0  0  0
 16 19  2  0  0  0  0
 17 18  1  0  0  0  0
 18 45  1  0  0  0  0
 18 46  1  0  0  0  0
 18 47  1  0  0  0  0
 19 20  1  0  0  0  0
 19 48  1  0  0  0  0
 21 22  2  0  0  0  0
 21 49  1  0  0  0  0
 22 23  1  0  0  0  0
 22 50  1  0  0  0  0
 23 24  1  0  0  0  0
 24 25  1  0  0  0  0
 24 51  1  0  0  0  0
 24 52  1  0  0  0  0
 25 26  2  0  0  0  0
 25 27  1  0  0  0  0
 27 28  1  0  0  0  0
 27 53  1  0  0  0  0
 28 29  2  0  0  0  0
 28 33  1  0  0  0  0
 29 30  1  0  0  0  0
 29 54  1  0  0  0  0
 30 31  1  0  0  0  0
 30 32  1  0  0  0  0
 31 55  1  0  0  0  0
 31 56  1  0  0  0  0
 31 57  1  0  0  0  0
 32 33  2  0  0  0  0
 33 34  1  0  0  0  0
 34 58  1  0  0  0  0
 34 59  1  0  0  0  0
 34 60  1  0  0  0  0
M  END
$$$$
