CHEMBL375491
 OpenBabel04072215373D

 63 68  0  0  0  0  0  0  0  0999 V2000
    1.9467    0.0318   -1.0341 C   0  0  0  0  0  0  0  0  0  0  0  0
    0.4995    0.2214   -1.0754 N   0  0  0  0  0  0  0  0  0  0  0  0
   -0.2041   -1.0248   -0.7314 C   0  0  0  0  0  0  0  0  0  0  0  0
   -1.7363   -0.8231   -0.7157 C   0  0  0  0  0  0  0  0  0  0  0  0
   -2.2045    0.2126    0.2316 N   0  0  0  0  0  0  0  0  0  0  0  0
   -2.0237   -0.1473    1.6504 C   0  0  0  0  0  0  0  0  0  0  0  0
   -2.7531   -1.4102    2.0783 C   0  0  0  0  0  0  0  0  0  0  0  0
   -2.0932   -2.6648    1.9885 C   0  0  0  0  0  0  0  0  0  0  0  0
   -2.7327   -3.8633    2.3101 C   0  0  0  0  0  0  0  0  0  0  0  0
   -4.0227   -3.7756    2.7652 C   0  0  0  0  0  0  0  0  0  0  0  0
   -4.6985   -2.5361    2.9258 C   0  0  0  0  0  0  0  0  0  0  0  0
   -4.0747   -1.3506    2.5599 C   0  0  0  0  0  0  0  0  0  0  0  0
   -6.1047   -2.6950    3.5431 C   0  0  0  0  0  0  0  0  0  0  0  0
   -6.0976   -4.1835    3.6614 C   0  0  0  0  0  0  0  0  0  0  0  0
   -6.8577   -5.2550    4.1550 C   0  0  0  0  0  0  0  0  0  0  0  0
   -8.1753   -5.1811    4.8637 C   0  0  0  0  0  0  0  0  0  0  0  0
   -8.8273   -6.2745    5.4008 C   0  0  0  0  0  0  0  0  0  0  0  0
  -10.0244   -5.9037    6.0757 C   0  0  0  0  0  0  0  0  0  0  0  0
  -10.8987   -6.7906    6.7728 C   0  0  0  0  0  0  0  0  0  0  0  0
  -11.7438   -7.5274    7.4383 C   0  0  0  0  0  0  0  0  0  0  0  0
  -12.7289   -8.3864    8.2143 C   0  0  0  0  0  0  0  0  0  0  0  0
  -12.0723   -9.0563    9.2824 O   0  0  0  0  0  0  0  0  0  0  0  0
  -12.8719   -9.8672   10.0464 C   0  0  0  0  0  0  0  0  0  0  0  0
  -14.2447  -10.0683    9.8699 C   0  0  0  0  0  0  0  0  0  0  0  0
  -14.9493  -10.9203   10.7242 C   0  0  0  0  0  0  0  0  0  0  0  0
  -14.2872  -11.5763   11.7585 C   0  0  0  0  0  0  0  0  0  0  0  0
  -12.9194  -11.3829   11.9390 C   0  0  0  0  0  0  0  0  0  0  0  0
  -12.2160  -10.5308   11.0849 C   0  0  0  0  0  0  0  0  0  0  0  0
  -10.2633   -4.5508    6.0022 C   0  0  0  0  0  0  0  0  0  0  0  0
   -9.0379   -3.7314    5.1394 S   0  0  0  0  0  0  0  0  0  0  0  0
   -6.2193   -6.4302    3.9510 N   0  0  0  0  0  0  0  0  0  0  0  0
   -5.0453   -6.0866    3.3642 N   0  0  0  0  0  0  0  0  0  0  0  0
   -4.9439   -4.7570    3.2082 C   0  0  0  0  0  0  0  0  0  0  0  0
   -1.4698    1.4614   -0.0900 C   0  0  0  0  0  0  0  0  0  0  0  0
    0.0745    1.3152   -0.1814 C   0  0  0  0  0  0  0  0  0  0  0  0
    2.2480   -0.7798   -1.7062 H   0  0  0  0  0  0  0  0  0  0  0  0
    2.3066   -0.2084   -0.0270 H   0  0  0  0  0  0  0  0  0  0  0  0
    2.4611    0.9347   -1.3798 H   0  0  0  0  0  0  0  0  0  0  0  0
    0.1400   -1.3988    0.2398 H   0  0  0  0  0  0  0  0  0  0  0  0
    0.0323   -1.7981   -1.4722 H   0  0  0  0  0  0  0  0  0  0  0  0
   -2.2424   -1.7781   -0.5440 H   0  0  0  0  0  0  0  0  0  0  0  0
   -2.0563   -0.5280   -1.7250 H   0  0  0  0  0  0  0  0  0  0  0  0
   -2.4091    0.6753    2.2689 H   0  0  0  0  0  0  0  0  0  0  0  0
   -0.9667   -0.2448    1.9259 H   0  0  0  0  0  0  0  0  0  0  0  0
   -1.0624   -2.7086    1.6469 H   0  0  0  0  0  0  0  0  0  0  0  0
   -2.2200   -4.8125    2.2113 H   0  0  0  0  0  0  0  0  0  0  0  0
   -4.5918   -0.4005    2.6496 H   0  0  0  0  0  0  0  0  0  0  0  0
   -6.8776   -2.3343    2.8607 H   0  0  0  0  0  0  0  0  0  0  0  0
   -6.1496   -2.2079    4.5206 H   0  0  0  0  0  0  0  0  0  0  0  0
   -8.4428   -7.2863    5.3342 H   0  0  0  0  0  0  0  0  0  0  0  0
  -13.1579   -9.1114    7.5118 H   0  0  0  0  0  0  0  0  0  0  0  0
  -13.5123   -7.7227    8.6000 H   0  0  0  0  0  0  0  0  0  0  0  0
  -14.8052   -9.5798    9.0797 H   0  0  0  0  0  0  0  0  0  0  0  0
  -16.0169  -11.0692   10.5810 H   0  0  0  0  0  0  0  0  0  0  0  0
  -14.8368  -12.2371   12.4233 H   0  0  0  0  0  0  0  0  0  0  0  0
  -12.3992  -11.8929   12.7452 H   0  0  0  0  0  0  0  0  0  0  0  0
  -11.1489  -10.3825   11.2307 H   0  0  0  0  0  0  0  0  0  0  0  0
  -11.0934   -3.9977    6.4213 H   0  0  0  0  0  0  0  0  0  0  0  0
   -4.3842   -6.8173    3.1241 H   0  0  0  0  0  0  0  0  0  0  0  0
   -1.7220    2.2469    0.6331 H   0  0  0  0  0  0  0  0  0  0  0  0
   -1.8384    1.8271   -1.0582 H   0  0  0  0  0  0  0  0  0  0  0  0
    0.4802    1.1656    0.8274 H   0  0  0  0  0  0  0  0  0  0  0  0
    0.4851    2.2610   -0.5552 H   0  0  0  0  0  0  0  0  0  0  0  0
  1  2  1  0  0  0  0
  1 36  1  0  0  0  0
  1 37  1  0  0  0  0
  1 38  1  0  0  0  0
  2  3  1  0  0  0  0
  2 35  1  0  0  0  0
  3  4  1  0  0  0  0
  3 39  1  0  0  0  0
  3 40  1  0  0  0  0
  4  5  1  0  0  0  0
  4 41  1  0  0  0  0
  4 42  1  0  0  0  0
  5  6  1  0  0  0  0
  5 34  1  0  0  0  0
  6  7  1  0  0  0  0
  6 43  1  0  0  0  0
  6 44  1  0  0  0  0
  7  8  1  0  0  0  0
  7 12  2  0  0  0  0
  8  9  2  0  0  0  0
  8 45  1  0  0  0  0
  9 10  1  0  0  0  0
  9 46  1  0  0  0  0
 10 11  2  0  0  0  0
 10 33  1  0  0  0  0
 11 12  1  0  0  0  0
 11 13  1  0  0  0  0
 12 47  1  0  0  0  0
 13 14  1  0  0  0  0
 13 48  1  0  0  0  0
 13 49  1  0  0  0  0
 14 15  1  0  0  0  0
 14 33  2  0  0  0  0
 15 16  1  0  0  0  0
 15 31  2  0  0  0  0
 16 17  2  0  0  0  0
 16 30  1  0  0  0  0
 17 18  1  0  0  0  0
 17 50  1  0  0  0  0
 18 19  1  0  0  0  0
 18 29  2  0  0  0  0
 19 20  3  0  0  0  0
 20 21  1  0  0  0  0
 21 22  1  0  0  0  0
 21 51  1  0  0  0  0
 21 52  1  0  0  0  0
 22 23  1  0  0  0  0
 23 24  1  0  0  0  0
 23 28  2  0  0  0  0
 24 25  2  0  0  0  0
 24 53  1  0  0  0  0
 25 26  1  0  0  0  0
 25 54  1  0  0  0  0
 26 27  2  0  0  0  0
 26 55  1  0  0  0  0
 27 28  1  0  0  0  0
 27 56  1  0  0  0  0
 28 57  1  0  0  0  0
 29 30  1  0  0  0  0
 29 58  1  0  0  0  0
 31 32  1  0  0  0  0
 32 33  1  0  0  0  0
 32 59  1  0  0  0  0
 34 35  1  0  0  0  0
 34 60  1  0  0  0  0
 34 61  1  0  0  0  0
 35 62  1  0  0  0  0
 35 63  1  0  0  0  0
M  END
$$$$
