CHEMBL3676368
 OpenBabel04072215373D

 64 66  0  0  0  0  0  0  0  0999 V2000
    4.7616   -1.3272   -1.8184 C   0  0  0  0  0  0  0  0  0  0  0  0
    4.2891   -0.4916   -0.8841 C   0  0  0  0  0  0  0  0  0  0  0  0
    5.1700   -0.0747    0.2380 C   0  0  0  0  0  0  0  0  0  0  0  0
    6.3435   -0.4320    0.2868 O   0  0  0  0  0  0  0  0  0  0  0  0
    4.5471    0.7271    1.1751 N   0  0  0  0  0  0  0  0  0  0  0  0
    5.2811    1.4759    2.1224 C   0  0  0  0  0  0  0  0  0  0  0  0
    6.4879    2.0792    1.7344 C   0  0  0  0  0  0  0  0  0  0  0  0
    7.2366    2.8725    2.6311 C   0  0  0  0  0  0  0  0  0  0  0  0
    8.3636    3.6472    2.3134 C   0  0  0  0  0  0  0  0  0  0  0  0
    8.7656    3.8015    0.9615 N   0  0  0  0  0  0  0  0  0  0  0  0
    9.6197    4.8417    0.5205 C   0  0  0  0  0  0  0  0  0  0  0  0
    9.4192    6.1629    0.9508 C   0  0  0  0  0  0  0  0  0  0  0  0
   10.3277    7.1697    0.6266 C   0  0  0  0  0  0  0  0  0  0  0  0
   11.4485    6.8717   -0.1535 C   0  0  0  0  0  0  0  0  0  0  0  0
   12.6748    8.2854   -0.4748 Br  0  0  0  0  0  0  0  0  0  0  0  0
   11.6367    5.5719   -0.6424 C   0  0  0  0  0  0  0  0  0  0  0  0
   12.9922    5.1475   -1.6283 Cl  0  0  0  0  0  0  0  0  0  0  0  0
   10.7163    4.5731   -0.3053 C   0  0  0  0  0  0  0  0  0  0  0  0
   10.9007    3.3105   -0.7351 F   0  0  0  0  0  0  0  0  0  0  0  0
    9.0359    4.3447    3.2517 N   0  0  0  0  0  0  0  0  0  0  0  0
    8.5720    4.2969    4.4981 C   0  0  0  0  0  0  0  0  0  0  0  0
    7.4771    3.6495    4.8968 N   0  0  0  0  0  0  0  0  0  0  0  0
    6.8189    2.9670    3.9599 C   0  0  0  0  0  0  0  0  0  0  0  0
    5.6225    2.3754    4.3262 C   0  0  0  0  0  0  0  0  0  0  0  0
    4.7993    1.6919    3.4176 C   0  0  0  0  0  0  0  0  0  0  0  0
    3.5542    1.1934    3.7517 O   0  0  0  0  0  0  0  0  0  0  0  0
    3.0397    1.7344    4.9883 C   0  0  0  0  0  0  0  0  0  0  0  0
    1.5615    1.4199    5.1994 C   0  0  0  0  0  0  0  0  0  0  0  0
    1.0123    2.2113    6.2910 N   0  0  0  0  0  0  0  0  0  0  0  0
    0.6757    3.5347    6.1131 C   0  0  0  0  0  0  0  0  0  0  0  0
    0.7646    4.1112    5.0336 O   0  0  0  0  0  0  0  0  0  0  0  0
    0.1516    4.2245    7.3518 C   0  0  0  0  0  0  0  0  0  0  0  0
   -1.3449    3.9825    7.5366 C   0  0  0  0  0  0  0  0  0  0  0  0
   -1.7219    2.5228    7.8332 C   0  0  0  0  0  0  0  0  0  0  0  0
   -0.9988    1.9437    8.9817 N   0  0  0  0  0  0  0  0  0  0  0  0
   -1.3879    2.6049   10.2380 C   0  0  0  0  0  0  0  0  0  0  0  0
   -1.2941    0.5097    9.0825 C   0  0  0  0  0  0  0  0  0  0  0  0
    4.1797   -1.5896   -2.6934 H   0  0  0  0  0  0  0  0  0  0  0  0
    5.7620   -1.7512   -1.7451 H   0  0  0  0  0  0  0  0  0  0  0  0
    3.3094   -0.0400   -0.9776 H   0  0  0  0  0  0  0  0  0  0  0  0
    3.5520    0.6286    1.3356 H   0  0  0  0  0  0  0  0  0  0  0  0
    6.8313    1.9754    0.7074 H   0  0  0  0  0  0  0  0  0  0  0  0
    8.9881    2.9011    0.5416 H   0  0  0  0  0  0  0  0  0  0  0  0
    8.5606    6.4060    1.5754 H   0  0  0  0  0  0  0  0  0  0  0  0
   10.1606    8.1727    1.0108 H   0  0  0  0  0  0  0  0  0  0  0  0
    9.1191    4.8527    5.2503 H   0  0  0  0  0  0  0  0  0  0  0  0
    5.3400    2.5025    5.3666 H   0  0  0  0  0  0  0  0  0  0  0  0
    3.1567    2.8271    4.9850 H   0  0  0  0  0  0  0  0  0  0  0  0
    3.5978    1.3097    5.8286 H   0  0  0  0  0  0  0  0  0  0  0  0
    1.4245    0.3626    5.4482 H   0  0  0  0  0  0  0  0  0  0  0  0
    0.9902    1.6229    4.2879 H   0  0  0  0  0  0  0  0  0  0  0  0
    0.9427    1.8152    7.2259 H   0  0  0  0  0  0  0  0  0  0  0  0
    0.3371    5.2995    7.2356 H   0  0  0  0  0  0  0  0  0  0  0  0
    0.7297    3.9097    8.2278 H   0  0  0  0  0  0  0  0  0  0  0  0
   -1.8753    4.2945    6.6280 H   0  0  0  0  0  0  0  0  0  0  0  0
   -1.7130    4.6323    8.3394 H   0  0  0  0  0  0  0  0  0  0  0  0
   -1.5110    1.9281    6.9359 H   0  0  0  0  0  0  0  0  0  0  0  0
   -2.8072    2.4578    7.9834 H   0  0  0  0  0  0  0  0  0  0  0  0
   -1.0559    3.6472   10.2508 H   0  0  0  0  0  0  0  0  0  0  0  0
   -0.9039    2.1230   11.0930 H   0  0  0  0  0  0  0  0  0  0  0  0
   -2.4715    2.5801   10.3949 H   0  0  0  0  0  0  0  0  0  0  0  0
   -0.9514   -0.0161    8.1845 H   0  0  0  0  0  0  0  0  0  0  0  0
   -2.3648    0.3153    9.2130 H   0  0  0  0  0  0  0  0  0  0  0  0
   -0.7567    0.0646    9.9277 H   0  0  0  0  0  0  0  0  0  0  0  0
  1  2  2  0  0  0  0
  1 38  1  0  0  0  0
  1 39  1  0  0  0  0
  2  3  1  0  0  0  0
  2 40  1  0  0  0  0
  3  4  2  0  0  0  0
  3  5  1  0  0  0  0
  5  6  1  0  0  0  0
  5 41  1  0  0  0  0
  6  7  1  0  0  0  0
  6 25  2  0  0  0  0
  7  8  2  0  0  0  0
  7 42  1  0  0  0  0
  8  9  1  0  0  0  0
  8 23  1  0  0  0  0
  9 10  1  0  0  0  0
  9 20  2  0  0  0  0
 10 11  1  0  0  0  0
 10 43  1  0  0  0  0
 11 12  1  0  0  0  0
 11 18  2  0  0  0  0
 12 13  2  0  0  0  0
 12 44  1  0  0  0  0
 13 14  1  0  0  0  0
 13 45  1  0  0  0  0
 14 15  1  0  0  0  0
 14 16  2  0  0  0  0
 16 17  1  0  0  0  0
 16 18  1  0  0  0  0
 18 19  1  0  0  0  0
 20 21  1  0  0  0  0
 21 22  2  0  0  0  0
 21 46  1  0  0  0  0
 22 23  1  0  0  0  0
 23 24  2  0  0  0  0
 24 25  1  0  0  0  0
 24 47  1  0  0  0  0
 25 26  1  0  0  0  0
 26 27  1  0  0  0  0
 27 28  1  0  0  0  0
 27 48  1  0  0  0  0
 27 49  1  0  0  0  0
 28 29  1  0  0  0  0
 28 50  1  0  0  0  0
 28 51  1  0  0  0  0
 29 30  1  0  0  0  0
 29 52  1  0  0  0  0
 30 31  2  0  0  0  0
 30 32  1  0  0  0  0
 32 33  1  0  0  0  0
 32 53  1  0  0  0  0
 32 54  1  0  0  0  0
 33 34  1  0  0  0  0
 33 55  1  0  0  0  0
 33 56  1  0  0  0  0
 34 35  1  0  0  0  0
 34 57  1  0  0  0  0
 34 58  1  0  0  0  0
 35 36  1  0  0  0  0
 35 37  1  0  0  0  0
 36 59  1  0  0  0  0
 36 60  1  0  0  0  0
 36 61  1  0  0  0  0
 37 62  1  0  0  0  0
 37 63  1  0  0  0  0
 37 64  1  0  0  0  0
M  END
$$$$
