CHEMBL3961472
 OpenBabel04072215373D

 58 61  0  0  1  0  0  0  0  0999 V2000
    5.5799   -7.8477   -1.9219 C   0  0  0  0  0  0  0  0  0  0  0  0
    6.3542   -6.6489   -1.4116 C   0  0  0  0  0  0  0  0  0  0  0  0
    5.2894   -5.2203   -1.2195 S   0  0  0  0  0  0  0  0  0  0  0  0
    4.8216   -4.8450   -2.5362 O   0  0  0  0  0  0  0  0  0  0  0  0
    4.3670   -5.4640   -0.1316 O   0  0  0  0  0  0  0  0  0  0  0  0
    6.3902   -4.0425   -0.7119 N   0  0  0  0  0  0  0  0  0  0  0  0
    6.9140   -4.1339    0.6789 C   0  0  0  0  0  0  0  0  0  0  0  0
    5.9870   -3.4024    1.6482 C   0  0  0  0  0  0  0  0  0  0  0  0
    5.8599   -2.0193    1.2828 O   0  0  0  0  0  0  0  0  0  0  0  0
    5.3285   -1.8195   -0.0553 C   0  0  3  0  0  0  0  0  0  0  0  0
    3.7958   -1.9702   -0.0500 C   0  0  0  0  0  0  0  0  0  0  0  0
    3.0956   -1.6517   -1.2779 O   0  0  0  0  0  0  0  0  0  0  0  0
    1.7076   -1.6823   -1.1680 C   0  0  0  0  0  0  0  0  0  0  0  0
    1.0690   -1.9857    0.0606 C   0  0  0  0  0  0  0  0  0  0  0  0
   -0.3080   -1.9697    0.2644 C   0  0  0  0  0  0  0  0  0  0  0  0
   -0.7961   -2.1810    1.4878 N   0  0  0  0  0  0  0  0  0  0  0  0
   -2.1262   -2.1116    1.6314 C   0  0  0  0  0  0  0  0  0  0  0  0
   -3.0123   -1.9149    0.6531 N   0  0  0  0  0  0  0  0  0  0  0  0
   -2.5098   -1.7445   -0.5815 C   0  0  0  0  0  0  0  0  0  0  0  0
   -3.3863   -1.5818   -1.6772 N   0  0  0  0  0  0  0  0  0  0  0  0
   -4.6360   -0.9536   -1.7477 C   0  0  0  0  0  0  0  0  0  0  0  0
   -5.3748   -1.0351   -2.9356 C   0  0  0  0  0  0  0  0  0  0  0  0
   -6.5119   -0.2473   -3.1349 C   0  0  0  0  0  0  0  0  0  0  0  0
   -6.9291    0.6419   -2.1435 C   0  0  0  0  0  0  0  0  0  0  0  0
   -8.2750    1.6655   -2.4938 Cl  0  0  0  0  0  0  0  0  0  0  0  0
   -6.2340    0.7036   -0.9337 C   0  0  0  0  0  0  0  0  0  0  0  0
   -6.6885    1.7753    0.3441 Cl  0  0  0  0  0  0  0  0  0  0  0  0
   -5.0996   -0.0913   -0.7405 C   0  0  0  0  0  0  0  0  0  0  0  0
   -1.1244   -1.7191   -0.8293 C   0  0  0  0  0  0  0  0  0  0  0  0
   -0.5244   -1.4029   -2.0619 C   0  0  0  0  0  0  0  0  0  0  0  0
    0.8728   -1.3689   -2.2492 C   0  0  0  0  0  0  0  0  0  0  0  0
    1.1307   -0.9655   -3.5225 O   0  0  0  0  0  0  0  0  0  0  0  0
    2.3979   -1.1181   -4.1200 C   0  0  0  0  0  0  0  0  0  0  0  0
    6.1141   -2.6232   -1.1028 C   0  0  0  0  0  0  0  0  0  0  0  0
    6.2666   -8.6568   -2.1874 H   0  0  0  0  0  0  0  0  0  0  0  0
    4.9866   -7.5957   -2.8064 H   0  0  0  0  0  0  0  0  0  0  0  0
    4.8946   -8.2219   -1.1544 H   0  0  0  0  0  0  0  0  0  0  0  0
    7.1429   -6.3738   -2.1191 H   0  0  0  0  0  0  0  0  0  0  0  0
    6.8025   -6.8828   -0.4419 H   0  0  0  0  0  0  0  0  0  0  0  0
    7.9067   -3.6659    0.6915 H   0  0  0  0  0  0  0  0  0  0  0  0
    7.0549   -5.1748    0.9834 H   0  0  0  0  0  0  0  0  0  0  0  0
    6.4155   -3.4417    2.6560 H   0  0  0  0  0  0  0  0  0  0  0  0
    4.9989   -3.8668    1.7108 H   0  0  0  0  0  0  0  0  0  0  0  0
    5.5217   -0.7626   -0.2776 H   0  0  0  0  0  0  0  0  0  0  0  0
    3.4585   -1.2704    0.7279 H   0  0  0  0  0  0  0  0  0  0  0  0
    3.5369   -2.9866    0.2609 H   0  0  0  0  0  0  0  0  0  0  0  0
    1.6333   -2.2295    0.9563 H   0  0  0  0  0  0  0  0  0  0  0  0
   -2.5192   -2.2218    2.6362 H   0  0  0  0  0  0  0  0  0  0  0  0
   -3.2110   -2.2746   -2.3986 H   0  0  0  0  0  0  0  0  0  0  0  0
   -5.0483   -1.6921   -3.7390 H   0  0  0  0  0  0  0  0  0  0  0  0
   -7.0459   -0.3087   -4.0799 H   0  0  0  0  0  0  0  0  0  0  0  0
   -4.5501   -0.0016    0.1923 H   0  0  0  0  0  0  0  0  0  0  0  0
   -1.1563   -1.1230   -2.9058 H   0  0  0  0  0  0  0  0  0  0  0  0
    2.2234   -1.1142   -5.2047 H   0  0  0  0  0  0  0  0  0  0  0  0
    2.8796   -2.0644   -3.8714 H   0  0  0  0  0  0  0  0  0  0  0  0
    3.0267   -0.2545   -3.8933 H   0  0  0  0  0  0  0  0  0  0  0  0
    7.1065   -2.1579   -1.1995 H   0  0  0  0  0  0  0  0  0  0  0  0
    5.6572   -2.5489   -2.0925 H   0  0  0  0  0  0  0  0  0  0  0  0
  1  2  1  0  0  0  0
  1 35  1  0  0  0  0
  1 36  1  0  0  0  0
  1 37  1  0  0  0  0
  2  3  1  0  0  0  0
  2 38  1  0  0  0  0
  2 39  1  0  0  0  0
  3  4  2  0  0  0  0
  3  5  2  0  0  0  0
  3  6  1  0  0  0  0
  6  7  1  0  0  0  0
  6 34  1  0  0  0  0
  7  8  1  0  0  0  0
  7 40  1  0  0  0  0
  7 41  1  0  0  0  0
  8  9  1  0  0  0  0
  8 42  1  0  0  0  0
  8 43  1  0  0  0  0
  9 10  1  0  0  0  0
 10 11  1  0  0  0  0
 10 34  1  0  0  0  0
 10 44  1  0  0  0  0
 11 12  1  0  0  0  0
 11 45  1  0  0  0  0
 11 46  1  0  0  0  0
 12 13  1  0  0  0  0
 13 14  1  0  0  0  0
 13 31  2  0  0  0  0
 14 15  2  0  0  0  0
 14 47  1  0  0  0  0
 15 16  1  0  0  0  0
 15 29  1  0  0  0  0
 16 17  2  0  0  0  0
 17 18  1  0  0  0  0
 17 48  1  0  0  0  0
 18 19  2  0  0  0  0
 19 20  1  0  0  0  0
 19 29  1  0  0  0  0
 20 21  1  0  0  0  0
 20 49  1  0  0  0  0
 21 22  1  0  0  0  0
 21 28  2  0  0  0  0
 22 23  2  0  0  0  0
 22 50  1  0  0  0  0
 23 24  1  0  0  0  0
 23 51  1  0  0  0  0
 24 25  1  0  0  0  0
 24 26  2  0  0  0  0
 26 27  1  0  0  0  0
 26 28  1  0  0  0  0
 28 52  1  0  0  0  0
 29 30  2  0  0  0  0
 30 31  1  0  0  0  0
 30 53  1  0  0  0  0
 31 32  1  0  0  0  0
 32 33  1  0  0  0  0
 33 54  1  0  0  0  0
 33 55  1  0  0  0  0
 33 56  1  0  0  0  0
 34 57  1  0  0  0  0
 34 58  1  0  0  0  0
M  END
$$$$
