CHEMBL4784540
 OpenBabel04072215383D

 53 57  0  0  0  0  0  0  0  0999 V2000
    1.0663    0.4073    0.1686 O   0  0  0  0  0  0  0  0  0  0  0  0
    2.2644    0.2331   -0.0883 C   0  0  0  0  0  0  0  0  0  0  0  0
    2.7688   -0.6598   -0.9907 N   0  0  0  0  0  0  0  0  0  0  0  0
    2.0742   -1.5896   -1.7803 C   0  0  0  0  0  0  0  0  0  0  0  0
    0.6984   -1.5468   -1.9952 C   0  0  0  0  0  0  0  0  0  0  0  0
    0.0760   -2.5001   -2.7931 C   0  0  0  0  0  0  0  0  0  0  0  0
    0.8220   -3.5301   -3.3590 C   0  0  0  0  0  0  0  0  0  0  0  0
    2.1960   -3.5951   -3.1418 C   0  0  0  0  0  0  0  0  0  0  0  0
    2.8235   -2.6207   -2.3651 C   0  0  0  0  0  0  0  0  0  0  0  0
    3.1665    0.9258    0.6549 N   0  0  0  0  0  0  0  0  0  0  0  0
    4.5411    0.9632    0.5278 C   0  0  0  0  0  0  0  0  0  0  0  0
    5.2038    1.4036    1.5942 N   0  0  0  0  0  0  0  0  0  0  0  0
    6.5463    1.3574    1.5648 C   0  0  0  0  0  0  0  0  0  0  0  0
    7.2564    1.5715    2.7643 N   0  0  0  0  0  0  0  0  0  0  0  0
    6.7318    1.3565    4.0566 C   0  0  0  0  0  0  0  0  0  0  0  0
    5.8664    0.2777    4.3128 C   0  0  0  0  0  0  0  0  0  0  0  0
    5.3164    0.0710    5.5788 C   0  0  0  0  0  0  0  0  0  0  0  0
    5.6331    0.9448    6.6111 C   0  0  0  0  0  0  0  0  0  0  0  0
    4.9461    0.7064    8.1693 Cl  0  0  0  0  0  0  0  0  0  0  0  0
    6.5018    2.0121    6.3861 C   0  0  0  0  0  0  0  0  0  0  0  0
    7.0545    2.2132    5.1141 C   0  0  0  0  0  0  0  0  0  0  0  0
    7.2323    1.0002    0.4270 C   0  0  0  0  0  0  0  0  0  0  0  0
    6.4577    0.5662   -0.6263 C   0  0  0  0  0  0  0  0  0  0  0  0
    7.1855   -0.0777   -2.1112 S   0  0  0  0  0  0  0  0  0  0  0  0
    7.4631   -1.7598   -1.7027 C   0  0  0  0  0  0  0  0  0  0  0  0
    7.1720   -2.4151   -0.5252 C   0  0  0  0  0  0  0  0  0  0  0  0
    7.5880   -3.7123   -0.6774 N   0  0  0  0  0  0  0  0  0  0  0  0
    8.4780   -3.7689   -1.7230 C   0  0  0  0  0  0  0  0  0  0  0  0
    9.4834   -4.6895   -2.0254 C   0  0  0  0  0  0  0  0  0  0  0  0
   10.1648   -4.5078   -3.2316 C   0  0  0  0  0  0  0  0  0  0  0  0
    9.7628   -3.5335   -4.1449 C   0  0  0  0  0  0  0  0  0  0  0  0
    8.7685   -2.6079   -3.8117 C   0  0  0  0  0  0  0  0  0  0  0  0
    8.2021   -2.6605   -2.5237 C   0  0  0  0  0  0  0  0  0  0  0  0
    5.1193    0.5144   -0.5820 N   0  0  0  0  0  0  0  0  0  0  0  0
    3.7828   -0.6878   -1.0399 H   0  0  0  0  0  0  0  0  0  0  0  0
    0.0912   -0.7463   -1.5781 H   0  0  0  0  0  0  0  0  0  0  0  0
   -0.9922   -2.4357   -2.9674 H   0  0  0  0  0  0  0  0  0  0  0  0
    0.3300   -4.2823   -3.9695 H   0  0  0  0  0  0  0  0  0  0  0  0
    2.7785   -4.4022   -3.5755 H   0  0  0  0  0  0  0  0  0  0  0  0
    3.8970   -2.6895   -2.2014 H   0  0  0  0  0  0  0  0  0  0  0  0
    2.7993    1.4181    1.4569 H   0  0  0  0  0  0  0  0  0  0  0  0
    7.9402    2.3140    2.6918 H   0  0  0  0  0  0  0  0  0  0  0  0
    5.6082   -0.4171    3.5166 H   0  0  0  0  0  0  0  0  0  0  0  0
    4.6421   -0.7651    5.7420 H   0  0  0  0  0  0  0  0  0  0  0  0
    6.7449    2.6966    7.1943 H   0  0  0  0  0  0  0  0  0  0  0  0
    7.7164    3.0603    4.9590 H   0  0  0  0  0  0  0  0  0  0  0  0
    8.3121    0.9584    0.3965 H   0  0  0  0  0  0  0  0  0  0  0  0
    6.7029   -2.1017    0.3971 H   0  0  0  0  0  0  0  0  0  0  0  0
    7.3658   -4.4818   -0.0596 H   0  0  0  0  0  0  0  0  0  0  0  0
    9.7716   -5.4685   -1.3275 H   0  0  0  0  0  0  0  0  0  0  0  0
   11.0144   -5.1445   -3.4669 H   0  0  0  0  0  0  0  0  0  0  0  0
   10.2591   -3.4584   -5.1090 H   0  0  0  0  0  0  0  0  0  0  0  0
    8.4883   -1.8258   -4.5113 H   0  0  0  0  0  0  0  0  0  0  0  0
  1  2  2  0  0  0  0
  2  3  1  0  0  0  0
  2 10  1  0  0  0  0
  3  4  1  0  0  0  0
  3 35  1  0  0  0  0
  4  5  1  0  0  0  0
  4  9  2  0  0  0  0
  5  6  2  0  0  0  0
  5 36  1  0  0  0  0
  6  7  1  0  0  0  0
  6 37  1  0  0  0  0
  7  8  2  0  0  0  0
  7 38  1  0  0  0  0
  8  9  1  0  0  0  0
  8 39  1  0  0  0  0
  9 40  1  0  0  0  0
 10 11  1  0  0  0  0
 10 41  1  0  0  0  0
 11 12  1  0  0  0  0
 11 34  2  0  0  0  0
 12 13  2  0  0  0  0
 13 14  1  0  0  0  0
 13 22  1  0  0  0  0
 14 15  1  0  0  0  0
 14 42  1  0  0  0  0
 15 16  1  0  0  0  0
 15 21  2  0  0  0  0
 16 17  2  0  0  0  0
 16 43  1  0  0  0  0
 17 18  1  0  0  0  0
 17 44  1  0  0  0  0
 18 19  1  0  0  0  0
 18 20  2  0  0  0  0
 20 21  1  0  0  0  0
 20 45  1  0  0  0  0
 21 46  1  0  0  0  0
 22 23  2  0  0  0  0
 22 47  1  0  0  0  0
 23 24  1  0  0  0  0
 23 34  1  0  0  0  0
 24 25  1  0  0  0  0
 25 26  2  0  0  0  0
 25 33  1  0  0  0  0
 26 27  1  0  0  0  0
 26 48  1  0  0  0  0
 27 28  1  0  0  0  0
 27 49  1  0  0  0  0
 28 29  1  0  0  0  0
 28 33  2  0  0  0  0
 29 30  2  0  0  0  0
 29 50  1  0  0  0  0
 30 31  1  0  0  0  0
 30 51  1  0  0  0  0
 31 32  2  0  0  0  0
 31 52  1  0  0  0  0
 32 33  1  0  0  0  0
 32 53  1  0  0  0  0
M  END
$$$$
