CHEMBL4085010
 OpenBabel04072215383D

 40 43  0  0  0  0  0  0  0  0999 V2000
   -1.0430    2.1995   -3.3780 C   0  0  0  0  0  0  0  0  0  0  0  0
   -1.3080    1.0321   -2.4926 C   0  0  0  0  0  0  0  0  0  0  0  0
   -1.7108   -0.0977   -3.0969 N   0  0  0  0  0  0  0  0  0  0  0  0
   -1.8995   -0.9549   -2.0861 N   0  0  0  0  0  0  0  0  0  0  0  0
   -1.6209   -0.4364   -0.8609 C   0  0  0  0  0  0  0  0  0  0  0  0
   -1.7351   -1.1135    0.2951 N   0  0  0  0  0  0  0  0  0  0  0  0
   -1.3931   -0.3819    1.3696 C   0  0  0  0  0  0  0  0  0  0  0  0
   -0.9660    0.9368    1.3374 C   0  0  0  0  0  0  0  0  0  0  0  0
   -0.8637    1.6228    0.1097 C   0  0  0  0  0  0  0  0  0  0  0  0
   -0.3937    3.0166    0.0589 C   0  0  0  0  0  0  0  0  0  0  0  0
    0.5210    3.4119   -0.9107 C   0  0  0  0  0  0  0  0  0  0  0  0
    0.8975    4.7433   -1.0677 C   0  0  0  0  0  0  0  0  0  0  0  0
    0.4689    5.7292   -0.1791 C   0  0  0  0  0  0  0  0  0  0  0  0
    0.8748    7.0868   -0.2919 N   0  0  0  0  0  0  0  0  0  0  0  0
    1.6006    7.5679   -1.3467 C   0  0  0  0  0  0  0  0  0  0  0  0
    1.9035    6.9919   -2.3724 O   0  0  0  0  0  0  0  0  0  0  0  0
    2.0547    8.9104   -1.1313 N   0  0  0  0  0  0  0  0  0  0  0  0
    2.8708    9.5478   -2.0763 C   0  0  0  0  0  0  0  0  0  0  0  0
    3.1203    9.1929   -3.3835 C   0  0  0  0  0  0  0  0  0  0  0  0
    4.0747   10.1159   -3.8487 C   0  0  0  0  0  0  0  0  0  0  0  0
    4.3754   11.0272   -2.9237 N   0  0  0  0  0  0  0  0  0  0  0  0
    3.6165   10.6781   -1.8694 N   0  0  0  0  0  0  0  0  0  0  0  0
   -0.3561    5.3380    0.8775 C   0  0  0  0  0  0  0  0  0  0  0  0
   -0.7948    4.0013    0.9818 C   0  0  0  0  0  0  0  0  0  0  0  0
   -1.2133    0.8806   -1.0600 C   0  0  0  0  0  0  0  0  0  0  0  0
   -1.3410    1.9871   -4.4120 H   0  0  0  0  0  0  0  0  0  0  0  0
    0.0233    2.4329   -3.4247 H   0  0  0  0  0  0  0  0  0  0  0  0
   -1.6002    3.0805   -3.0493 H   0  0  0  0  0  0  0  0  0  0  0  0
   -2.2241   -1.8918   -2.2866 H   0  0  0  0  0  0  0  0  0  0  0  0
   -1.4682   -0.9099    2.3176 H   0  0  0  0  0  0  0  0  0  0  0  0
   -0.6939    1.4191    2.2719 H   0  0  0  0  0  0  0  0  0  0  0  0
    0.9650    2.6784   -1.5781 H   0  0  0  0  0  0  0  0  0  0  0  0
    1.5493    4.9386   -1.9110 H   0  0  0  0  0  0  0  0  0  0  0  0
    0.5727    7.7083    0.4443 H   0  0  0  0  0  0  0  0  0  0  0  0
    1.8791    9.3705   -0.2534 H   0  0  0  0  0  0  0  0  0  0  0  0
    2.7098    8.3724   -3.9563 H   0  0  0  0  0  0  0  0  0  0  0  0
    4.5528   10.1520   -4.8187 H   0  0  0  0  0  0  0  0  0  0  0  0
    3.7049   11.2329   -1.0281 H   0  0  0  0  0  0  0  0  0  0  0  0
   -0.6909    6.0494    1.6285 H   0  0  0  0  0  0  0  0  0  0  0  0
   -1.4628    3.7398    1.8016 H   0  0  0  0  0  0  0  0  0  0  0  0
  1  2  1  0  0  0  0
  1 26  1  0  0  0  0
  1 27  1  0  0  0  0
  1 28  1  0  0  0  0
  2  3  2  0  0  0  0
  2 25  1  0  0  0  0
  3  4  1  0  0  0  0
  4  5  1  0  0  0  0
  4 29  1  0  0  0  0
  5  6  1  0  0  0  0
  5 25  2  0  0  0  0
  6  7  2  0  0  0  0
  7  8  1  0  0  0  0
  7 30  1  0  0  0  0
  8  9  2  0  0  0  0
  8 31  1  0  0  0  0
  9 10  1  0  0  0  0
  9 25  1  0  0  0  0
 10 11  1  0  0  0  0
 10 24  2  0  0  0  0
 11 12  2  0  0  0  0
 11 32  1  0  0  0  0
 12 13  1  0  0  0  0
 12 33  1  0  0  0  0
 13 14  1  0  0  0  0
 13 23  2  0  0  0  0
 14 15  1  0  0  0  0
 14 34  1  0  0  0  0
 15 16  2  0  0  0  0
 15 17  1  0  0  0  0
 17 18  1  0  0  0  0
 17 35  1  0  0  0  0
 18 19  2  0  0  0  0
 18 22  1  0  0  0  0
 19 20  1  0  0  0  0
 19 36  1  0  0  0  0
 20 21  2  0  0  0  0
 20 37  1  0  0  0  0
 21 22  1  0  0  0  0
 22 38  1  0  0  0  0
 23 24  1  0  0  0  0
 23 39  1  0  0  0  0
 24 40  1  0  0  0  0
M  END
$$$$
