CHEMBL2036727
 OpenBabel04072215363D

 38 41  0  0  0  0  0  0  0  0999 V2000
   -1.7235   -0.8870    2.6221 C   0  0  0  0  0  0  0  0  0  0  0  0
   -1.2709   -0.7012    1.2618 N   0  0  0  0  0  0  0  0  0  0  0  0
   -1.9485   -0.9254    0.0717 C   0  0  0  0  0  0  0  0  0  0  0  0
   -3.3190   -1.4294   -0.0700 C   0  0  0  0  0  0  0  0  0  0  0  0
   -4.1064   -1.0922   -1.1442 C   0  0  0  0  0  0  0  0  0  0  0  0
   -5.3857   -1.5899   -1.1147 C   0  0  0  0  0  0  0  0  0  0  0  0
   -5.8678   -2.3690   -0.1242 N   0  0  0  0  0  0  0  0  0  0  0  0
   -5.0102   -2.6957    0.8502 C   0  0  0  0  0  0  0  0  0  0  0  0
   -5.4586   -3.5192    1.8812 N   0  0  0  0  0  0  0  0  0  0  0  0
   -4.6885   -4.3866    2.6710 C   0  0  0  0  0  0  0  0  0  0  0  0
   -5.1018   -4.7063    3.9707 C   0  0  0  0  0  0  0  0  0  0  0  0
   -4.2856   -5.4770    4.8085 C   0  0  0  0  0  0  0  0  0  0  0  0
   -3.0570   -5.9461    4.3482 C   0  0  0  0  0  0  0  0  0  0  0  0
   -2.0382   -6.8634    5.3860 Cl  0  0  0  0  0  0  0  0  0  0  0  0
   -2.6413   -5.6624    3.0534 C   0  0  0  0  0  0  0  0  0  0  0  0
   -3.4536   -4.8861    2.2275 C   0  0  0  0  0  0  0  0  0  0  0  0
   -3.7514   -2.2408    0.9037 N   0  0  0  0  0  0  0  0  0  0  0  0
   -1.1852   -0.5716   -0.9538 N   0  0  0  0  0  0  0  0  0  0  0  0
   -0.0104   -0.1066   -0.4249 C   0  0  0  0  0  0  0  0  0  0  0  0
    1.1269    0.3953   -1.0747 C   0  0  0  0  0  0  0  0  0  0  0  0
    2.2004    0.8528   -0.3005 C   0  0  0  0  0  0  0  0  0  0  0  0
    2.1453    0.8050    1.0932 C   0  0  0  0  0  0  0  0  0  0  0  0
    1.0243    0.2940    1.7576 C   0  0  0  0  0  0  0  0  0  0  0  0
   -0.0389   -0.1581    0.9641 C   0  0  0  0  0  0  0  0  0  0  0  0
   -2.6920   -1.3692    2.6822 H   0  0  0  0  0  0  0  0  0  0  0  0
   -1.7937    0.0961    3.0949 H   0  0  0  0  0  0  0  0  0  0  0  0
   -0.9923   -1.5114    3.1437 H   0  0  0  0  0  0  0  0  0  0  0  0
   -3.7441   -0.4641   -1.9466 H   0  0  0  0  0  0  0  0  0  0  0  0
   -6.0887   -1.3669   -1.9134 H   0  0  0  0  0  0  0  0  0  0  0  0
   -6.4442   -3.7217    1.7984 H   0  0  0  0  0  0  0  0  0  0  0  0
   -6.0410   -4.3187    4.3577 H   0  0  0  0  0  0  0  0  0  0  0  0
   -4.6059   -5.6906    5.8252 H   0  0  0  0  0  0  0  0  0  0  0  0
   -1.6891   -6.0256    2.6775 H   0  0  0  0  0  0  0  0  0  0  0  0
   -3.1077   -4.6774    1.2174 H   0  0  0  0  0  0  0  0  0  0  0  0
    1.1611    0.4340   -2.1575 H   0  0  0  0  0  0  0  0  0  0  0  0
    3.0832    1.2539   -0.7926 H   0  0  0  0  0  0  0  0  0  0  0  0
    2.9880    1.1734    1.6754 H   0  0  0  0  0  0  0  0  0  0  0  0
    0.9858    0.2617    2.8410 H   0  0  0  0  0  0  0  0  0  0  0  0
  1  2  1  0  0  0  0
  1 25  1  0  0  0  0
  1 26  1  0  0  0  0
  1 27  1  0  0  0  0
  2  3  1  0  0  0  0
  2 24  1  0  0  0  0
  3  4  1  0  0  0  0
  3 18  2  0  0  0  0
  4  5  1  0  0  0  0
  4 17  2  0  0  0  0
  5  6  2  0  0  0  0
  5 28  1  0  0  0  0
  6  7  1  0  0  0  0
  6 29  1  0  0  0  0
  7  8  2  0  0  0  0
  8  9  1  0  0  0  0
  8 17  1  0  0  0  0
  9 10  1  0  0  0  0
  9 30  1  0  0  0  0
 10 11  1  0  0  0  0
 10 16  2  0  0  0  0
 11 12  2  0  0  0  0
 11 31  1  0  0  0  0
 12 13  1  0  0  0  0
 12 32  1  0  0  0  0
 13 14  1  0  0  0  0
 13 15  2  0  0  0  0
 15 16  1  0  0  0  0
 15 33  1  0  0  0  0
 16 34  1  0  0  0  0
 18 19  1  0  0  0  0
 19 20  1  0  0  0  0
 19 24  2  0  0  0  0
 20 21  2  0  0  0  0
 20 35  1  0  0  0  0
 21 22  1  0  0  0  0
 21 36  1  0  0  0  0
 22 23  2  0  0  0  0
 22 37  1  0  0  0  0
 23 24  1  0  0  0  0
 23 38  1  0  0  0  0
M  END
$$$$
