CHEMBL3911573
 OpenBabel04072215373D

 72 77  0  0  0  0  0  0  0  0999 V2000
    1.0238   -3.3639    1.8607 C   0  0  0  0  0  0  0  0  0  0  0  0
    2.2822   -3.1390    2.4847 O   0  0  0  0  0  0  0  0  0  0  0  0
    3.1585   -2.2954    1.8542 C   0  0  0  0  0  0  0  0  0  0  0  0
    2.9593   -1.7697    0.5745 C   0  0  0  0  0  0  0  0  0  0  0  0
    3.9008   -0.9022    0.0256 C   0  0  0  0  0  0  0  0  0  0  0  0
    3.8019   -0.3377   -1.2232 O   0  0  0  0  0  0  0  0  0  0  0  0
    2.6135   -0.6032   -1.9798 C   0  0  0  0  0  0  0  0  0  0  0  0
    5.0554   -0.5662    0.7597 C   0  0  0  0  0  0  0  0  0  0  0  0
    5.3022   -1.0843    2.0584 C   0  0  0  0  0  0  0  0  0  0  0  0
    6.5456   -0.8469    2.8397 N   0  0  0  0  0  0  0  0  0  0  0  0
    7.1085    0.5044    2.5437 C   0  0  0  0  0  0  0  0  0  0  0  0
    6.2118    1.7397    2.7240 C   0  0  0  0  0  0  0  0  0  0  0  0
    5.5697    2.0177    4.0632 C   0  0  0  0  0  0  0  0  0  0  0  0
    4.6961    1.8658    2.8558 C   0  0  0  0  0  0  0  0  0  0  0  0
    7.5886   -1.8973    2.7995 C   0  0  0  0  0  0  0  0  0  0  0  0
    7.4693   -2.7606    1.7360 C   0  0  0  0  0  0  0  0  0  0  0  0
    8.0589   -4.0031    1.7511 C   0  0  0  0  0  0  0  0  0  0  0  0
    8.9292   -4.4022    2.7112 C   0  0  0  0  0  0  0  0  0  0  0  0
    9.1954   -5.6948    2.5355 N   0  0  0  0  0  0  0  0  0  0  0  0
   10.2232   -6.2179    3.1716 C   0  0  0  0  0  0  0  0  0  0  0  0
   11.0773   -5.4558    3.9211 C   0  0  0  0  0  0  0  0  0  0  0  0
   12.3921   -6.1718    4.1196 C   0  0  0  0  0  0  0  0  0  0  0  0
   12.8577   -6.9729    5.2050 C   0  0  0  0  0  0  0  0  0  0  0  0
   13.8444   -7.8259    4.8845 N   0  0  0  0  0  0  0  0  0  0  0  0
   13.9979   -7.6792    3.5501 N   0  0  0  0  0  0  0  0  0  0  0  0
   15.0671   -8.4434    2.8572 C   0  0  0  0  0  0  0  0  0  0  0  0
   16.4911   -7.9611    3.2756 C   0  0  0  0  0  0  0  0  0  0  0  0
   16.6540   -8.1358    4.6962 O   0  0  0  0  0  0  0  0  0  0  0  0
   16.6346   -6.4826    2.8871 C   0  0  0  0  0  0  0  0  0  0  0  0
   17.9880   -5.9115    3.2719 C   0  0  0  0  0  0  0  0  0  0  0  0
   19.0674   -6.6549    2.6249 N   0  0  0  0  0  0  0  0  0  0  0  0
   19.0257   -8.0666    3.0218 C   0  0  0  0  0  0  0  0  0  0  0  0
   17.6809   -8.7292    2.6424 C   0  0  0  0  0  0  0  0  0  0  0  0
   13.1082   -6.7515    3.0476 C   0  0  0  0  0  0  0  0  0  0  0  0
   10.7095   -4.1260    4.2644 N   0  0  0  0  0  0  0  0  0  0  0  0
    9.5025   -3.5335    3.6558 C   0  0  0  0  0  0  0  0  0  0  0  0
    8.6685   -2.2242    3.7363 C   0  0  0  0  0  0  0  0  0  0  0  0
    4.3297   -1.9696    2.5730 C   0  0  0  0  0  0  0  0  0  0  0  0
    0.3968   -3.9048    2.5738 H   0  0  0  0  0  0  0  0  0  0  0  0
    1.1410   -3.9921    0.9709 H   0  0  0  0  0  0  0  0  0  0  0  0
    0.5132   -2.4235    1.6193 H   0  0  0  0  0  0  0  0  0  0  0  0
    2.0780   -2.0576    0.0033 H   0  0  0  0  0  0  0  0  0  0  0  0
    2.6622   -0.0307   -2.9095 H   0  0  0  0  0  0  0  0  0  0  0  0
    1.7180   -0.2763   -1.4398 H   0  0  0  0  0  0  0  0  0  0  0  0
    2.5427   -1.6631   -2.2483 H   0  0  0  0  0  0  0  0  0  0  0  0
    5.7690    0.0922    0.2724 H   0  0  0  0  0  0  0  0  0  0  0  0
    7.4962    0.5288    1.5158 H   0  0  0  0  0  0  0  0  0  0  0  0
    7.9752    0.6828    3.1903 H   0  0  0  0  0  0  0  0  0  0  0  0
    6.6764    2.5867    2.2192 H   0  0  0  0  0  0  0  0  0  0  0  0
    5.6760    3.0103    4.4851 H   0  0  0  0  0  0  0  0  0  0  0  0
    5.5258    1.2200    4.7954 H   0  0  0  0  0  0  0  0  0  0  0  0
    4.2178    2.7656    2.4726 H   0  0  0  0  0  0  0  0  0  0  0  0
    4.0282    1.0164    2.8398 H   0  0  0  0  0  0  0  0  0  0  0  0
    6.8464   -2.5522    0.8794 H   0  0  0  0  0  0  0  0  0  0  0  0
    7.8145   -4.6951    0.9520 H   0  0  0  0  0  0  0  0  0  0  0  0
   10.4040   -7.2605    2.9427 H   0  0  0  0  0  0  0  0  0  0  0  0
   12.4691   -7.0221    6.2142 H   0  0  0  0  0  0  0  0  0  0  0  0
   14.9073   -8.3408    1.7768 H   0  0  0  0  0  0  0  0  0  0  0  0
   14.9200   -9.4991    3.1251 H   0  0  0  0  0  0  0  0  0  0  0  0
   15.7705   -8.0556    5.1194 H   0  0  0  0  0  0  0  0  0  0  0  0
   15.8668   -5.8771    3.3752 H   0  0  0  0  0  0  0  0  0  0  0  0
   16.4918   -6.3818    1.8010 H   0  0  0  0  0  0  0  0  0  0  0  0
   18.1100   -5.9140    4.3614 H   0  0  0  0  0  0  0  0  0  0  0  0
   18.0305   -4.8668    2.9465 H   0  0  0  0  0  0  0  0  0  0  0  0
   19.9562   -6.2534    2.9283 H   0  0  0  0  0  0  0  0  0  0  0  0
   19.2145   -8.1549    4.0998 H   0  0  0  0  0  0  0  0  0  0  0  0
   19.8517   -8.5875    2.5229 H   0  0  0  0  0  0  0  0  0  0  0  0
   17.7132   -9.7665    3.0003 H   0  0  0  0  0  0  0  0  0  0  0  0
   17.5969   -8.7620    1.5489 H   0  0  0  0  0  0  0  0  0  0  0  0
   13.0157   -6.6268    1.9762 H   0  0  0  0  0  0  0  0  0  0  0  0
    8.8712   -1.5603    4.5665 H   0  0  0  0  0  0  0  0  0  0  0  0
    4.4842   -2.4110    3.5498 H   0  0  0  0  0  0  0  0  0  0  0  0
  1  2  1  0  0  0  0
  1 39  1  0  0  0  0
  1 40  1  0  0  0  0
  1 41  1  0  0  0  0
  2  3  1  0  0  0  0
  3  4  1  0  0  0  0
  3 38  2  0  0  0  0
  4  5  2  0  0  0  0
  4 42  1  0  0  0  0
  5  6  1  0  0  0  0
  5  8  1  0  0  0  0
  6  7  1  0  0  0  0
  7 43  1  0  0  0  0
  7 44  1  0  0  0  0
  7 45  1  0  0  0  0
  8  9  2  0  0  0  0
  8 46  1  0  0  0  0
  9 10  1  0  0  0  0
  9 38  1  0  0  0  0
 10 11  1  0  0  0  0
 10 15  1  0  0  0  0
 11 12  1  0  0  0  0
 11 47  1  0  0  0  0
 11 48  1  0  0  0  0
 12 13  1  0  0  0  0
 12 14  1  0  0  0  0
 12 49  1  0  0  0  0
 13 14  1  0  0  0  0
 13 50  1  0  0  0  0
 13 51  1  0  0  0  0
 14 52  1  0  0  0  0
 14 53  1  0  0  0  0
 15 16  1  0  0  0  0
 15 37  2  0  0  0  0
 16 17  2  0  0  0  0
 16 54  1  0  0  0  0
 17 18  1  0  0  0  0
 17 55  1  0  0  0  0
 18 19  1  0  0  0  0
 18 36  2  0  0  0  0
 19 20  2  0  0  0  0
 20 21  1  0  0  0  0
 20 56  1  0  0  0  0
 21 22  1  0  0  0  0
 21 35  2  0  0  0  0
 22 23  1  0  0  0  0
 22 34  2  0  0  0  0
 23 24  2  0  0  0  0
 23 57  1  0  0  0  0
 24 25  1  0  0  0  0
 25 26  1  0  0  0  0
 25 34  1  0  0  0  0
 26 27  1  0  0  0  0
 26 58  1  0  0  0  0
 26 59  1  0  0  0  0
 27 28  1  0  0  0  0
 27 29  1  0  0  0  0
 27 33  1  0  0  0  0
 28 60  1  0  0  0  0
 29 30  1  0  0  0  0
 29 61  1  0  0  0  0
 29 62  1  0  0  0  0
 30 31  1  0  0  0  0
 30 63  1  0  0  0  0
 30 64  1  0  0  0  0
 31 32  1  0  0  0  0
 31 65  1  0  0  0  0
 32 33  1  0  0  0  0
 32 66  1  0  0  0  0
 32 67  1  0  0  0  0
 33 68  1  0  0  0  0
 33 69  1  0  0  0  0
 34 70  1  0  0  0  0
 35 36  1  0  0  0  0
 36 37  1  0  0  0  0
 37 71  1  0  0  0  0
 38 72  1  0  0  0  0
M  END
$$$$
