CHEMBL3133755
 OpenBabel04072215363D

 67 71  0  0  0  0  0  0  0  0999 V2000
   -2.7679    2.5822    1.4705 O   0  0  0  0  0  0  0  0  0  0  0  0
   -2.9488    3.3209    2.4303 C   0  0  0  0  0  0  0  0  0  0  0  0
   -1.9242    3.9155    3.1559 N   0  0  0  0  0  0  0  0  0  0  0  0
   -0.5379    3.7672    2.8952 C   0  0  0  0  0  0  0  0  0  0  0  0
   -0.0294    3.2284    1.7114 C   0  0  0  0  0  0  0  0  0  0  0  0
    1.3436    3.0698    1.5304 C   0  0  0  0  0  0  0  0  0  0  0  0
    2.2281    3.4587    2.5327 C   0  0  0  0  0  0  0  0  0  0  0  0
    1.7584    4.0179    3.7293 C   0  0  0  0  0  0  0  0  0  0  0  0
    2.7029    4.5213    4.6461 N   0  0  0  0  0  0  0  0  0  0  0  0
    2.5099    5.0663    5.9350 C   0  0  0  0  0  0  0  0  0  0  0  0
    1.4795    4.6270    6.6804 N   0  0  0  0  0  0  0  0  0  0  0  0
    1.2787    5.2407    7.8492 C   0  0  0  0  0  0  0  0  0  0  0  0
    1.9835    6.2686    8.3306 N   0  0  0  0  0  0  0  0  0  0  0  0
    2.9950    6.7125    7.5762 C   0  0  0  0  0  0  0  0  0  0  0  0
    3.7005    7.8307    7.9977 C   0  0  0  0  0  0  0  0  0  0  0  0
    4.7266    8.3896    7.2266 C   0  0  0  0  0  0  0  0  0  0  0  0
    5.3256    9.5182    7.7034 O   0  0  0  0  0  0  0  0  0  0  0  0
    5.4842   10.5864    6.7448 C   0  0  0  0  0  0  0  0  0  0  0  0
    4.8897   11.8235    7.4071 C   0  0  0  0  0  0  0  0  0  0  0  0
    5.0393   13.1487    6.6426 C   0  0  0  0  0  0  0  0  0  0  0  0
    4.4759   14.2504    7.4482 N   0  0  0  0  0  0  0  0  0  0  0  0
    3.0221   14.1372    7.6953 C   0  0  0  0  0  0  0  0  0  0  0  0
    2.1739   14.4583    6.4584 C   0  0  0  0  0  0  0  0  0  0  0  0
    2.4170   15.7994    6.0225 O   0  0  0  0  0  0  0  0  0  0  0  0
    3.8056   16.0008    5.7204 C   0  0  0  0  0  0  0  0  0  0  0  0
    4.7321   15.5920    6.8832 C   0  0  0  0  0  0  0  0  0  0  0  0
    5.1361    7.7596    6.0605 C   0  0  0  0  0  0  0  0  0  0  0  0
    4.4501    6.6315    5.6241 C   0  0  0  0  0  0  0  0  0  0  0  0
    3.3483    6.1159    6.3589 C   0  0  0  0  0  0  0  0  0  0  0  0
    0.3719    4.1915    3.8768 C   0  0  0  0  0  0  0  0  0  0  0  0
   -4.1991    3.6422    2.9370 N   0  0  0  0  0  0  0  0  0  0  0  0
   -5.4432    3.1403    2.4786 C   0  0  0  0  0  0  0  0  0  0  0  0
   -5.5729    2.2199    1.4297 C   0  0  0  0  0  0  0  0  0  0  0  0
   -6.8270    1.7542    1.0225 C   0  0  0  0  0  0  0  0  0  0  0  0
   -7.9659    2.2046    1.6697 C   0  0  0  0  0  0  0  0  0  0  0  0
   -9.1601    1.7469    1.2691 F   0  0  0  0  0  0  0  0  0  0  0  0
   -7.8620    3.1147    2.7177 C   0  0  0  0  0  0  0  0  0  0  0  0
   -9.2753    3.6659    3.5332 Cl  0  0  0  0  0  0  0  0  0  0  0  0
   -6.6060    3.5853    3.1216 C   0  0  0  0  0  0  0  0  0  0  0  0
   -2.1628    4.3346    4.0413 H   0  0  0  0  0  0  0  0  0  0  0  0
   -0.6761    2.9323    0.8918 H   0  0  0  0  0  0  0  0  0  0  0  0
    1.7165    2.6484    0.6008 H   0  0  0  0  0  0  0  0  0  0  0  0
    3.2938    3.3374    2.3586 H   0  0  0  0  0  0  0  0  0  0  0  0
    3.6373    4.1503    4.5290 H   0  0  0  0  0  0  0  0  0  0  0  0
    0.4532    4.8828    8.4539 H   0  0  0  0  0  0  0  0  0  0  0  0
    3.4161    8.3111    8.9315 H   0  0  0  0  0  0  0  0  0  0  0  0
    4.9671   10.3921    5.7968 H   0  0  0  0  0  0  0  0  0  0  0  0
    6.5544   10.7069    6.5513 H   0  0  0  0  0  0  0  0  0  0  0  0
    5.3235   11.9318    8.4080 H   0  0  0  0  0  0  0  0  0  0  0  0
    3.8323   11.5917    7.5575 H   0  0  0  0  0  0  0  0  0  0  0  0
    4.5812   13.0836    5.6489 H   0  0  0  0  0  0  0  0  0  0  0  0
    6.1103   13.3328    6.4868 H   0  0  0  0  0  0  0  0  0  0  0  0
    2.7719   14.8596    8.4850 H   0  0  0  0  0  0  0  0  0  0  0  0
    2.7406   13.1669    8.1056 H   0  0  0  0  0  0  0  0  0  0  0  0
    1.1119   14.3771    6.7110 H   0  0  0  0  0  0  0  0  0  0  0  0
    2.3666   13.7631    5.6325 H   0  0  0  0  0  0  0  0  0  0  0  0
    3.9313   17.0679    5.5182 H   0  0  0  0  0  0  0  0  0  0  0  0
    4.0515   15.4543    4.8044 H   0  0  0  0  0  0  0  0  0  0  0  0
    4.5748   16.3086    7.7015 H   0  0  0  0  0  0  0  0  0  0  0  0
    5.7815   15.7044    6.5889 H   0  0  0  0  0  0  0  0  0  0  0  0
    5.9732    8.1440    5.4872 H   0  0  0  0  0  0  0  0  0  0  0  0
    4.7607    6.1690    4.6906 H   0  0  0  0  0  0  0  0  0  0  0  0
   -0.0118    4.6557    4.7803 H   0  0  0  0  0  0  0  0  0  0  0  0
   -4.2297    4.3241    3.6799 H   0  0  0  0  0  0  0  0  0  0  0  0
   -4.7138    1.8338    0.8898 H   0  0  0  0  0  0  0  0  0  0  0  0
   -6.9103    1.0467    0.2033 H   0  0  0  0  0  0  0  0  0  0  0  0
   -6.5500    4.2947    3.9422 H   0  0  0  0  0  0  0  0  0  0  0  0
  1  2  2  0  0  0  0
  2  3  1  0  0  0  0
  2 31  1  0  0  0  0
  3  4  1  0  0  0  0
  3 40  1  0  0  0  0
  4  5  1  0  0  0  0
  4 30  2  0  0  0  0
  5  6  2  0  0  0  0
  5 41  1  0  0  0  0
  6  7  1  0  0  0  0
  6 42  1  0  0  0  0
  7  8  2  0  0  0  0
  7 43  1  0  0  0  0
  8  9  1  0  0  0  0
  8 30  1  0  0  0  0
  9 10  1  0  0  0  0
  9 44  1  0  0  0  0
 10 11  1  0  0  0  0
 10 29  2  0  0  0  0
 11 12  2  0  0  0  0
 12 13  1  0  0  0  0
 12 45  1  0  0  0  0
 13 14  2  0  0  0  0
 14 15  1  0  0  0  0
 14 29  1  0  0  0  0
 15 16  2  0  0  0  0
 15 46  1  0  0  0  0
 16 17  1  0  0  0  0
 16 27  1  0  0  0  0
 17 18  1  0  0  0  0
 18 19  1  0  0  0  0
 18 47  1  0  0  0  0
 18 48  1  0  0  0  0
 19 20  1  0  0  0  0
 19 49  1  0  0  0  0
 19 50  1  0  0  0  0
 20 21  1  0  0  0  0
 20 51  1  0  0  0  0
 20 52  1  0  0  0  0
 21 22  1  0  0  0  0
 21 26  1  0  0  0  0
 22 23  1  0  0  0  0
 22 53  1  0  0  0  0
 22 54  1  0  0  0  0
 23 24  1  0  0  0  0
 23 55  1  0  0  0  0
 23 56  1  0  0  0  0
 24 25  1  0  0  0  0
 25 26  1  0  0  0  0
 25 57  1  0  0  0  0
 25 58  1  0  0  0  0
 26 59  1  0  0  0  0
 26 60  1  0  0  0  0
 27 28  2  0  0  0  0
 27 61  1  0  0  0  0
 28 29  1  0  0  0  0
 28 62  1  0  0  0  0
 30 63  1  0  0  0  0
 31 32  1  0  0  0  0
 31 64  1  0  0  0  0
 32 33  1  0  0  0  0
 32 39  2  0  0  0  0
 33 34  2  0  0  0  0
 33 65  1  0  0  0  0
 34 35  1  0  0  0  0
 34 66  1  0  0  0  0
 35 36  1  0  0  0  0
 35 37  2  0  0  0  0
 37 38  1  0  0  0  0
 37 39  1  0  0  0  0
 39 67  1  0  0  0  0
M  END
$$$$
