CHEMBL3133751
 OpenBabel04072215363D

 74 78  0  0  0  0  0  0  0  0999 V2000
    2.6963   -1.5819    0.2083 C   0  0  0  0  0  0  0  0  0  0  0  0
    2.4528   -0.1778    0.0782 O   0  0  0  0  0  0  0  0  0  0  0  0
    3.1278    0.5246   -0.8838 C   0  0  0  0  0  0  0  0  0  0  0  0
    4.2939    0.0467   -1.4929 C   0  0  0  0  0  0  0  0  0  0  0  0
    4.9809    0.7569   -2.4597 C   0  0  0  0  0  0  0  0  0  0  0  0
    6.1089    0.2242   -2.9236 N   0  0  0  0  0  0  0  0  0  0  0  0
    6.8128    0.9680   -3.7771 C   0  0  0  0  0  0  0  0  0  0  0  0
    6.4848    2.1933   -4.1982 N   0  0  0  0  0  0  0  0  0  0  0  0
    5.3342    2.7180   -3.7359 C   0  0  0  0  0  0  0  0  0  0  0  0
    5.0100    4.0607   -4.0731 N   0  0  0  0  0  0  0  0  0  0  0  0
    5.9241    5.0266   -4.5430 C   0  0  0  0  0  0  0  0  0  0  0  0
    5.5275    5.9720   -5.4826 C   0  0  0  0  0  0  0  0  0  0  0  0
    6.4626    6.8545   -6.0450 C   0  0  0  0  0  0  0  0  0  0  0  0
    7.8014    6.8373   -5.6720 C   0  0  0  0  0  0  0  0  0  0  0  0
    8.8135    7.6162   -6.3175 N   0  0  0  0  0  0  0  0  0  0  0  0
    8.5882    8.4952   -7.3772 C   0  0  0  0  0  0  0  0  0  0  0  0
    7.4879    8.7810   -7.8392 O   0  0  0  0  0  0  0  0  0  0  0  0
    9.7633    9.0236   -7.8969 N   0  0  0  0  0  0  0  0  0  0  0  0
    9.6921    9.8958   -9.0288 C   0  0  0  0  0  0  0  0  0  0  0  0
   10.4348    9.6049  -10.1599 C   0  0  0  0  0  0  0  0  0  0  0  0
   10.3732   10.4546  -11.2733 C   0  0  0  0  0  0  0  0  0  0  0  0
    9.5823   11.6133  -11.2508 C   0  0  0  0  0  0  0  0  0  0  0  0
    9.6580   12.6164  -12.6533 Cl  0  0  0  0  0  0  0  0  0  0  0  0
    8.8040   11.9130  -10.1295 C   0  0  0  0  0  0  0  0  0  0  0  0
    7.8705   13.0929  -10.0347 C   0  0  0  0  0  0  0  0  0  0  0  0
    7.8134   13.9054  -11.1233 F   0  0  0  0  0  0  0  0  0  0  0  0
    6.5801   12.7094   -9.8115 F   0  0  0  0  0  0  0  0  0  0  0  0
    8.1901   13.9147   -8.9930 F   0  0  0  0  0  0  0  0  0  0  0  0
    8.8800   11.0470   -9.0230 C   0  0  0  0  0  0  0  0  0  0  0  0
    8.1793    5.9839   -4.6292 C   0  0  0  0  0  0  0  0  0  0  0  0
    7.2423    5.1008   -4.0700 C   0  0  0  0  0  0  0  0  0  0  0  0
    4.4955    2.0037   -2.8639 C   0  0  0  0  0  0  0  0  0  0  0  0
    3.2924    2.4826   -2.3078 C   0  0  0  0  0  0  0  0  0  0  0  0
    2.6606    1.7936   -1.2695 C   0  0  0  0  0  0  0  0  0  0  0  0
    1.6111    2.4904   -0.7311 O   0  0  0  0  0  0  0  0  0  0  0  0
    1.5399    2.4985    0.7003 C   0  0  0  0  0  0  0  0  0  0  0  0
    1.1173    3.8921    1.2094 C   0  0  0  0  0  0  0  0  0  0  0  0
   -0.2183    4.2883    0.5723 C   0  0  0  0  0  0  0  0  0  0  0  0
   -0.8544    5.5372    1.0304 N   0  0  0  0  0  0  0  0  0  0  0  0
   -2.1416    5.7162    0.3004 C   0  0  0  0  0  0  0  0  0  0  0  0
   -1.9655    6.0928   -1.1858 C   0  0  0  0  0  0  0  0  0  0  0  0
   -1.1671    7.2735   -1.3347 O   0  0  0  0  0  0  0  0  0  0  0  0
    0.1090    7.1103   -0.7002 C   0  0  0  0  0  0  0  0  0  0  0  0
   -0.0491    6.7555    0.7883 C   0  0  0  0  0  0  0  0  0  0  0  0
    3.1255   -1.7861    1.1951 H   0  0  0  0  0  0  0  0  0  0  0  0
    3.3404   -2.0365   -0.5490 H   0  0  0  0  0  0  0  0  0  0  0  0
    1.7379   -2.1023    0.1329 H   0  0  0  0  0  0  0  0  0  0  0  0
    4.7514   -0.8885   -1.1921 H   0  0  0  0  0  0  0  0  0  0  0  0
    7.7353    0.5481   -4.1526 H   0  0  0  0  0  0  0  0  0  0  0  0
    4.1189    4.0851   -4.5602 H   0  0  0  0  0  0  0  0  0  0  0  0
    4.4992    6.0188   -5.8333 H   0  0  0  0  0  0  0  0  0  0  0  0
    6.0829    7.5245   -6.8076 H   0  0  0  0  0  0  0  0  0  0  0  0
    9.7535    7.5155   -5.9848 H   0  0  0  0  0  0  0  0  0  0  0  0
   10.5396    8.3829   -7.8920 H   0  0  0  0  0  0  0  0  0  0  0  0
   11.0238    8.6910  -10.2431 H   0  0  0  0  0  0  0  0  0  0  0  0
   10.9363   10.2063  -12.1724 H   0  0  0  0  0  0  0  0  0  0  0  0
    8.2915   11.2597   -8.1250 H   0  0  0  0  0  0  0  0  0  0  0  0
    9.1949    5.9570   -4.2506 H   0  0  0  0  0  0  0  0  0  0  0  0
    7.5555    4.4380   -3.2628 H   0  0  0  0  0  0  0  0  0  0  0  0
    2.8772    3.4346   -2.6317 H   0  0  0  0  0  0  0  0  0  0  0  0
    2.4943    2.2331    1.1678 H   0  0  0  0  0  0  0  0  0  0  0  0
    0.7771    1.7669    0.9841 H   0  0  0  0  0  0  0  0  0  0  0  0
    1.8925    4.6261    0.9565 H   0  0  0  0  0  0  0  0  0  0  0  0
    1.0305    3.8631    2.3024 H   0  0  0  0  0  0  0  0  0  0  0  0
   -0.9204    3.4744    0.7927 H   0  0  0  0  0  0  0  0  0  0  0  0
   -0.0801    4.3018   -0.5117 H   0  0  0  0  0  0  0  0  0  0  0  0
   -2.7031    6.5163    0.7990 H   0  0  0  0  0  0  0  0  0  0  0  0
   -2.7564    4.8120    0.3873 H   0  0  0  0  0  0  0  0  0  0  0  0
   -2.9431    6.2929   -1.6352 H   0  0  0  0  0  0  0  0  0  0  0  0
   -1.5116    5.2813   -1.7662 H   0  0  0  0  0  0  0  0  0  0  0  0
    0.6460    8.0590   -0.7990 H   0  0  0  0  0  0  0  0  0  0  0  0
    0.6867    6.3502   -1.2376 H   0  0  0  0  0  0  0  0  0  0  0  0
   -0.5671    7.5908    1.2818 H   0  0  0  0  0  0  0  0  0  0  0  0
    0.9281    6.6867    1.2763 H   0  0  0  0  0  0  0  0  0  0  0  0
  1  2  1  0  0  0  0
  1 45  1  0  0  0  0
  1 46  1  0  0  0  0
  1 47  1  0  0  0  0
  2  3  1  0  0  0  0
  3  4  1  0  0  0  0
  3 34  2  0  0  0  0
  4  5  2  0  0  0  0
  4 48  1  0  0  0  0
  5  6  1  0  0  0  0
  5 32  1  0  0  0  0
  6  7  2  0  0  0  0
  7  8  1  0  0  0  0
  7 49  1  0  0  0  0
  8  9  2  0  0  0  0
  9 10  1  0  0  0  0
  9 32  1  0  0  0  0
 10 11  1  0  0  0  0
 10 50  1  0  0  0  0
 11 12  1  0  0  0  0
 11 31  2  0  0  0  0
 12 13  2  0  0  0  0
 12 51  1  0  0  0  0
 13 14  1  0  0  0  0
 13 52  1  0  0  0  0
 14 15  1  0  0  0  0
 14 30  2  0  0  0  0
 15 16  1  0  0  0  0
 15 53  1  0  0  0  0
 16 17  2  0  0  0  0
 16 18  1  0  0  0  0
 18 19  1  0  0  0  0
 18 54  1  0  0  0  0
 19 20  1  0  0  0  0
 19 29  2  0  0  0  0
 20 21  2  0  0  0  0
 20 55  1  0  0  0  0
 21 22  1  0  0  0  0
 21 56  1  0  0  0  0
 22 23  1  0  0  0  0
 22 24  2  0  0  0  0
 24 25  1  0  0  0  0
 24 29  1  0  0  0  0
 25 26  1  0  0  0  0
 25 27  1  0  0  0  0
 25 28  1  0  0  0  0
 29 57  1  0  0  0  0
 30 31  1  0  0  0  0
 30 58  1  0  0  0  0
 31 59  1  0  0  0  0
 32 33  2  0  0  0  0
 33 34  1  0  0  0  0
 33 60  1  0  0  0  0
 34 35  1  0  0  0  0
 35 36  1  0  0  0  0
 36 37  1  0  0  0  0
 36 61  1  0  0  0  0
 36 62  1  0  0  0  0
 37 38  1  0  0  0  0
 37 63  1  0  0  0  0
 37 64  1  0  0  0  0
 38 39  1  0  0  0  0
 38 65  1  0  0  0  0
 38 66  1  0  0  0  0
 39 40  1  0  0  0  0
 39 44  1  0  0  0  0
 40 41  1  0  0  0  0
 40 67  1  0  0  0  0
 40 68  1  0  0  0  0
 41 42  1  0  0  0  0
 41 69  1  0  0  0  0
 41 70  1  0  0  0  0
 42 43  1  0  0  0  0
 43 44  1  0  0  0  0
 43 71  1  0  0  0  0
 43 72  1  0  0  0  0
 44 73  1  0  0  0  0
 44 74  1  0  0  0  0
M  END
$$$$
