CHEMBL2430259
 OpenBabel04072215363D

 61 65  0  0  0  0  0  0  0  0999 V2000
    0.9128    0.2502   -0.1037 C   0  0  0  0  0  0  0  0  0  0  0  0
    2.3812   -0.0104   -0.0831 C   0  0  0  0  0  0  0  0  0  0  0  0
    3.2889    1.0391   -0.0832 N   0  0  0  0  0  0  0  0  0  0  0  0
    4.5687    0.5505   -0.0790 C   0  0  0  0  0  0  0  0  0  0  0  0
    4.4745   -0.8244   -0.0910 C   0  0  0  0  0  0  0  0  0  0  0  0
    3.1009   -1.1997   -0.1132 C   0  0  0  0  0  0  0  0  0  0  0  0
    2.6546   -2.5910   -0.1732 C   0  0  0  0  0  0  0  0  0  0  0  0
    3.3400   -3.4760   -0.6846 O   0  0  0  0  0  0  0  0  0  0  0  0
    1.4694   -2.8776    0.4451 N   0  0  0  0  0  0  0  0  0  0  0  0
    1.0170   -4.2471    0.5105 C   0  0  0  0  0  0  0  0  0  0  0  0
   -0.3416   -4.3961    1.2094 C   0  0  0  0  0  0  0  0  0  0  0  0
   -1.4134   -3.5786    0.6025 N   0  0  0  0  0  0  0  0  0  0  0  0
   -1.6735   -4.0014   -0.7850 C   0  0  0  0  0  0  0  0  0  0  0  0
   -2.7320   -3.1192   -1.4375 C   0  0  0  0  0  0  0  0  0  0  0  0
   -4.0266   -3.1333   -0.6384 C   0  0  0  0  0  0  0  0  0  0  0  0
   -3.7532   -2.7845    0.8201 C   0  0  0  0  0  0  0  0  0  0  0  0
   -2.6456   -3.6647    1.4056 C   0  0  0  0  0  0  0  0  0  0  0  0
    5.6263   -1.7695   -0.0671 C   0  0  0  0  0  0  0  0  0  0  0  0
    6.9896   -1.1130   -0.0452 C   0  0  0  0  0  0  0  0  0  0  0  0
    7.0550    0.4086   -0.0562 C   0  0  0  0  0  0  0  0  0  0  0  0
    5.7981    1.2756   -0.0669 C   0  0  0  0  0  0  0  0  0  0  0  0
    5.9738    2.6239   -0.0715 C   0  0  0  0  0  0  0  0  0  0  0  0
    4.9408    3.7385   -0.0866 C   0  0  0  0  0  0  0  0  0  0  0  0
    3.7272    3.6491   -0.0912 O   0  0  0  0  0  0  0  0  0  0  0  0
    5.6646    4.9266   -0.0900 N   0  0  0  0  0  0  0  0  0  0  0  0
    7.0357    4.6956   -0.0754 C   0  0  0  0  0  0  0  0  0  0  0  0
    8.0460    5.6487   -0.0724 C   0  0  0  0  0  0  0  0  0  0  0  0
    9.3714    5.2076   -0.0612 C   0  0  0  0  0  0  0  0  0  0  0  0
    9.6520    3.8451   -0.0505 C   0  0  0  0  0  0  0  0  0  0  0  0
   10.9166    3.4222   -0.0410 F   0  0  0  0  0  0  0  0  0  0  0  0
    8.6255    2.9109   -0.0500 C   0  0  0  0  0  0  0  0  0  0  0  0
    7.3004    3.3249   -0.0640 C   0  0  0  0  0  0  0  0  0  0  0  0
    0.6899    1.3211   -0.1193 H   0  0  0  0  0  0  0  0  0  0  0  0
    0.4341   -0.1660    0.7880 H   0  0  0  0  0  0  0  0  0  0  0  0
    0.4548   -0.2057   -0.9878 H   0  0  0  0  0  0  0  0  0  0  0  0
    3.0392    2.0250   -0.0950 H   0  0  0  0  0  0  0  0  0  0  0  0
    0.9594   -2.1618    0.9366 H   0  0  0  0  0  0  0  0  0  0  0  0
    1.7783   -4.8315    1.0437 H   0  0  0  0  0  0  0  0  0  0  0  0
    0.9927   -4.6396   -0.5118 H   0  0  0  0  0  0  0  0  0  0  0  0
   -0.2073   -4.0828    2.2531 H   0  0  0  0  0  0  0  0  0  0  0  0
   -0.6179   -5.4572    1.2204 H   0  0  0  0  0  0  0  0  0  0  0  0
   -1.9851   -5.0542   -0.8182 H   0  0  0  0  0  0  0  0  0  0  0  0
   -0.7713   -3.9103   -1.3970 H   0  0  0  0  0  0  0  0  0  0  0  0
   -2.9189   -3.4655   -2.4600 H   0  0  0  0  0  0  0  0  0  0  0  0
   -2.3524   -2.0920   -1.5101 H   0  0  0  0  0  0  0  0  0  0  0  0
   -4.4801   -4.1303   -0.6967 H   0  0  0  0  0  0  0  0  0  0  0  0
   -4.7413   -2.4257   -1.0710 H   0  0  0  0  0  0  0  0  0  0  0  0
   -4.6723   -2.9071    1.4044 H   0  0  0  0  0  0  0  0  0  0  0  0
   -3.4641   -1.7285    0.8969 H   0  0  0  0  0  0  0  0  0  0  0  0
   -3.0002   -4.7021    1.4679 H   0  0  0  0  0  0  0  0  0  0  0  0
   -2.4489   -3.3260    2.4301 H   0  0  0  0  0  0  0  0  0  0  0  0
    5.5815   -2.4243   -0.9412 H   0  0  0  0  0  0  0  0  0  0  0  0
    5.5368   -2.4095    0.8184 H   0  0  0  0  0  0  0  0  0  0  0  0
    7.5746   -1.4872   -0.8973 H   0  0  0  0  0  0  0  0  0  0  0  0
    7.5458   -1.4753    0.8311 H   0  0  0  0  0  0  0  0  0  0  0  0
    7.6226    0.6592   -0.9606 H   0  0  0  0  0  0  0  0  0  0  0  0
    7.6118    0.6693    0.8516 H   0  0  0  0  0  0  0  0  0  0  0  0
    5.2206    5.8349   -0.1005 H   0  0  0  0  0  0  0  0  0  0  0  0
    7.8260    6.7148   -0.0797 H   0  0  0  0  0  0  0  0  0  0  0  0
   10.2048    5.9044   -0.0618 H   0  0  0  0  0  0  0  0  0  0  0  0
    8.9592    1.8822   -0.0412 H   0  0  0  0  0  0  0  0  0  0  0  0
  1  2  1  0  0  0  0
  1 33  1  0  0  0  0
  1 34  1  0  0  0  0
  1 35  1  0  0  0  0
  2  3  1  0  0  0  0
  2  6  2  0  0  0  0
  3  4  1  0  0  0  0
  3 36  1  0  0  0  0
  4  5  2  0  0  0  0
  4 21  1  0  0  0  0
  5  6  1  0  0  0  0
  5 18  1  0  0  0  0
  6  7  1  0  0  0  0
  7  8  2  0  0  0  0
  7  9  1  0  0  0  0
  9 10  1  0  0  0  0
  9 37  1  0  0  0  0
 10 11  1  0  0  0  0
 10 38  1  0  0  0  0
 10 39  1  0  0  0  0
 11 12  1  0  0  0  0
 11 40  1  0  0  0  0
 11 41  1  0  0  0  0
 12 13  1  0  0  0  0
 12 17  1  0  0  0  0
 13 14  1  0  0  0  0
 13 42  1  0  0  0  0
 13 43  1  0  0  0  0
 14 15  1  0  0  0  0
 14 44  1  0  0  0  0
 14 45  1  0  0  0  0
 15 16  1  0  0  0  0
 15 46  1  0  0  0  0
 15 47  1  0  0  0  0
 16 17  1  0  0  0  0
 16 48  1  0  0  0  0
 16 49  1  0  0  0  0
 17 50  1  0  0  0  0
 17 51  1  0  0  0  0
 18 19  1  0  0  0  0
 18 52  1  0  0  0  0
 18 53  1  0  0  0  0
 19 20  1  0  0  0  0
 19 54  1  0  0  0  0
 19 55  1  0  0  0  0
 20 21  1  0  0  0  0
 20 56  1  0  0  0  0
 20 57  1  0  0  0  0
 21 22  2  0  0  0  0
 22 23  1  0  0  0  0
 22 32  1  0  0  0  0
 23 24  2  0  0  0  0
 23 25  1  0  0  0  0
 25 26  1  0  0  0  0
 25 58  1  0  0  0  0
 26 27  1  0  0  0  0
 26 32  2  0  0  0  0
 27 28  2  0  0  0  0
 27 59  1  0  0  0  0
 28 29  1  0  0  0  0
 28 60  1  0  0  0  0
 29 30  1  0  0  0  0
 29 31  2  0  0  0  0
 31 32  1  0  0  0  0
 31 61  1  0  0  0  0
M  END
$$$$
