CHEMBL1081312
 OpenBabel04072215353D

 41 45  0  0  0  0  0  0  0  0999 V2000
    1.0341    0.1694   -0.1594 N   0  0  0  0  0  0  0  0  0  0  0  0
    2.4065    0.0266   -0.1243 C   0  0  0  0  0  0  0  0  0  0  0  0
    3.1123    1.1661   -0.1107 N   0  0  0  0  0  0  0  0  0  0  0  0
    4.4557    1.0878   -0.0798 C   0  0  0  0  0  0  0  0  0  0  0  0
    5.2276   -0.0158   -0.0597 N   0  0  0  0  0  0  0  0  0  0  0  0
    4.4850   -1.1296   -0.0753 C   0  0  0  0  0  0  0  0  0  0  0  0
    3.1047   -1.2024   -0.1092 C   0  0  0  0  0  0  0  0  0  0  0  0
    2.7964   -2.5869   -0.1230 C   0  0  0  0  0  0  0  0  0  0  0  0
    1.4963   -3.2169   -0.2323 C   0  0  0  0  0  0  0  0  0  0  0  0
    0.4390   -2.6125   -0.9119 C   0  0  0  0  0  0  0  0  0  0  0  0
   -0.7915   -3.1145   -1.1513 N   0  0  0  0  0  0  0  0  0  0  0  0
   -0.8928   -4.3950   -0.7210 C   0  0  0  0  0  0  0  0  0  0  0  0
   -1.9841   -5.1843   -0.9327 N   0  0  0  0  0  0  0  0  0  0  0  0
   -1.7315   -6.4383   -0.4249 C   0  0  0  0  0  0  0  0  0  0  0  0
   -0.4865   -6.4207    0.1643 C   0  0  0  0  0  0  0  0  0  0  0  0
    0.0583   -5.1249   -0.0414 C   0  0  0  0  0  0  0  0  0  0  0  0
    1.2837   -4.5172    0.2585 C   0  0  0  0  0  0  0  0  0  0  0  0
    3.9314   -3.3348   -0.0607 N   0  0  0  0  0  0  0  0  0  0  0  0
    4.9301   -2.4286   -0.0654 N   0  0  0  0  0  0  0  0  0  0  0  0
    6.3172   -2.8671   -0.0667 C   0  0  0  0  0  0  0  0  0  0  0  0
    6.6937   -3.7413   -1.2642 C   0  0  0  0  0  0  0  0  0  0  0  0
    7.9276   -4.5262   -0.8211 C   0  0  0  0  0  0  0  0  0  0  0  0
    8.0077   -4.4019    0.6986 C   0  0  0  0  0  0  0  0  0  0  0  0
    6.7190   -3.7168    1.1388 C   0  0  0  0  0  0  0  0  0  0  0  0
    0.7162    1.0909    0.0463 H   0  0  0  0  0  0  0  0  0  0  0  0
    0.4694   -0.5691    0.2404 H   0  0  0  0  0  0  0  0  0  0  0  0
    4.9736    2.0388   -0.0707 H   0  0  0  0  0  0  0  0  0  0  0  0
    0.5470   -1.6458   -1.3603 H   0  0  0  0  0  0  0  0  0  0  0  0
   -2.8111   -4.8863   -1.4094 H   0  0  0  0  0  0  0  0  0  0  0  0
   -2.4629   -7.2302   -0.5285 H   0  0  0  0  0  0  0  0  0  0  0  0
   -0.0014   -7.2584    0.6433 H   0  0  0  0  0  0  0  0  0  0  0  0
    2.0722   -5.0536    0.7779 H   0  0  0  0  0  0  0  0  0  0  0  0
    6.9465   -1.9645   -0.0812 H   0  0  0  0  0  0  0  0  0  0  0  0
    6.8972   -3.1414   -2.1577 H   0  0  0  0  0  0  0  0  0  0  0  0
    5.8949   -4.4443   -1.5249 H   0  0  0  0  0  0  0  0  0  0  0  0
    8.8360   -4.1216   -1.2824 H   0  0  0  0  0  0  0  0  0  0  0  0
    7.8482   -5.5740   -1.1298 H   0  0  0  0  0  0  0  0  0  0  0  0
    8.8767   -3.7916    0.9743 H   0  0  0  0  0  0  0  0  0  0  0  0
    8.1303   -5.3776    1.1791 H   0  0  0  0  0  0  0  0  0  0  0  0
    6.8714   -3.1110    2.0378 H   0  0  0  0  0  0  0  0  0  0  0  0
    5.9647   -4.4755    1.3777 H   0  0  0  0  0  0  0  0  0  0  0  0
  1  2  1  0  0  0  0
  1 25  1  0  0  0  0
  1 26  1  0  0  0  0
  2  3  1  0  0  0  0
  2  7  2  0  0  0  0
  3  4  2  0  0  0  0
  4  5  1  0  0  0  0
  4 27  1  0  0  0  0
  5  6  2  0  0  0  0
  6  7  1  0  0  0  0
  6 19  1  0  0  0  0
  7  8  1  0  0  0  0
  8  9  1  0  0  0  0
  8 18  2  0  0  0  0
  9 10  1  0  0  0  0
  9 17  2  0  0  0  0
 10 11  2  0  0  0  0
 10 28  1  0  0  0  0
 11 12  1  0  0  0  0
 12 13  1  0  0  0  0
 12 16  2  0  0  0  0
 13 14  1  0  0  0  0
 13 29  1  0  0  0  0
 14 15  2  0  0  0  0
 14 30  1  0  0  0  0
 15 16  1  0  0  0  0
 15 31  1  0  0  0  0
 16 17  1  0  0  0  0
 17 32  1  0  0  0  0
 18 19  1  0  0  0  0
 19 20  1  0  0  0  0
 20 21  1  0  0  0  0
 20 24  1  0  0  0  0
 20 33  1  0  0  0  0
 21 22  1  0  0  0  0
 21 34  1  0  0  0  0
 21 35  1  0  0  0  0
 22 23  1  0  0  0  0
 22 36  1  0  0  0  0
 22 37  1  0  0  0  0
 23 24  1  0  0  0  0
 23 38  1  0  0  0  0
 23 39  1  0  0  0  0
 24 40  1  0  0  0  0
 24 41  1  0  0  0  0
M  END
$$$$
