CHEMBL194746
 OpenBabel04072215363D

 42 45  0  0  0  0  0  0  0  0999 V2000
    1.9832   -1.3164   -0.4374 N   0  0  0  0  0  0  0  0  0  0  0  0
    2.4770   -0.1164   -0.0118 C   0  0  0  0  0  0  0  0  0  0  0  0
    2.2887    0.2677    1.1363 O   0  0  0  0  0  0  0  0  0  0  0  0
    3.1755    0.7291   -1.0163 C   0  0  0  0  0  0  0  0  0  0  0  0
    3.2638    2.1004   -0.7800 C   0  0  0  0  0  0  0  0  0  0  0  0
    3.8495    2.9428   -1.7327 C   0  0  0  0  0  0  0  0  0  0  0  0
    4.2926    2.4642   -2.9812 C   0  0  0  0  0  0  0  0  0  0  0  0
    4.7725    3.3648   -4.0707 C   0  0  0  0  0  0  0  0  0  0  0  0
    5.7079    2.8097   -4.8760 N   0  0  0  0  0  0  0  0  0  0  0  0
    6.2651    3.5197   -5.9137 N   0  0  0  0  0  0  0  0  0  0  0  0
    5.9660    4.8200   -6.1020 C   0  0  0  0  0  0  0  0  0  0  0  0
    6.5668    5.5383   -7.1691 N   0  0  0  0  0  0  0  0  0  0  0  0
    6.9962    5.0359   -8.4124 C   0  0  0  0  0  0  0  0  0  0  0  0
    6.3753    3.9375   -9.0243 C   0  0  0  0  0  0  0  0  0  0  0  0
    6.7687    3.4983  -10.2933 C   0  0  0  0  0  0  0  0  0  0  0  0
    7.7886    4.1613  -10.9678 C   0  0  0  0  0  0  0  0  0  0  0  0
    8.2829    3.6181  -12.5235 Cl  0  0  0  0  0  0  0  0  0  0  0  0
    8.4035    5.2691  -10.3919 C   0  0  0  0  0  0  0  0  0  0  0  0
    7.9980    5.7107   -9.1264 C   0  0  0  0  0  0  0  0  0  0  0  0
    5.0307    5.4669   -5.2672 C   0  0  0  0  0  0  0  0  0  0  0  0
    4.7135    6.8439   -5.3981 C   0  0  0  0  0  0  0  0  0  0  0  0
    3.7053    7.4443   -4.6464 C   0  0  0  0  0  0  0  0  0  0  0  0
    2.9403    6.6674   -3.7970 C   0  0  0  0  0  0  0  0  0  0  0  0
    3.2426    5.3160   -3.6442 C   0  0  0  0  0  0  0  0  0  0  0  0
    4.3427    4.6971   -4.2973 C   0  0  0  0  0  0  0  0  0  0  0  0
    4.2833    1.0647   -3.1485 C   0  0  0  0  0  0  0  0  0  0  0  0
    3.7417    0.2054   -2.1799 C   0  0  0  0  0  0  0  0  0  0  0  0
    1.3983   -1.8155    0.2191 H   0  0  0  0  0  0  0  0  0  0  0  0
    1.8951   -1.5650   -1.4159 H   0  0  0  0  0  0  0  0  0  0  0  0
    2.8658    2.5246    0.1402 H   0  0  0  0  0  0  0  0  0  0  0  0
    3.9365    3.9955   -1.4734 H   0  0  0  0  0  0  0  0  0  0  0  0
    7.1284    6.2989   -6.8096 H   0  0  0  0  0  0  0  0  0  0  0  0
    5.5612    3.4172   -8.5242 H   0  0  0  0  0  0  0  0  0  0  0  0
    6.2701    2.6449  -10.7446 H   0  0  0  0  0  0  0  0  0  0  0  0
    9.1934    5.7961  -10.9205 H   0  0  0  0  0  0  0  0  0  0  0  0
    8.4814    6.5873   -8.7032 H   0  0  0  0  0  0  0  0  0  0  0  0
    5.2492    7.4700   -6.1086 H   0  0  0  0  0  0  0  0  0  0  0  0
    3.4940    8.5043   -4.7579 H   0  0  0  0  0  0  0  0  0  0  0  0
    2.1054    7.1021   -3.2539 H   0  0  0  0  0  0  0  0  0  0  0  0
    2.5699    4.7344   -3.0172 H   0  0  0  0  0  0  0  0  0  0  0  0
    4.7025    0.6224   -4.0526 H   0  0  0  0  0  0  0  0  0  0  0  0
    3.7778   -0.8663   -2.3527 H   0  0  0  0  0  0  0  0  0  0  0  0
  1  2  1  0  0  0  0
  1 28  1  0  0  0  0
  1 29  1  0  0  0  0
  2  3  2  0  0  0  0
  2  4  1  0  0  0  0
  4  5  1  0  0  0  0
  4 27  2  0  0  0  0
  5  6  2  0  0  0  0
  5 30  1  0  0  0  0
  6  7  1  0  0  0  0
  6 31  1  0  0  0  0
  7  8  1  0  0  0  0
  7 26  2  0  0  0  0
  8  9  1  0  0  0  0
  8 25  2  0  0  0  0
  9 10  2  0  0  0  0
 10 11  1  0  0  0  0
 11 12  1  0  0  0  0
 11 20  2  0  0  0  0
 12 13  1  0  0  0  0
 12 32  1  0  0  0  0
 13 14  1  0  0  0  0
 13 19  2  0  0  0  0
 14 15  2  0  0  0  0
 14 33  1  0  0  0  0
 15 16  1  0  0  0  0
 15 34  1  0  0  0  0
 16 17  1  0  0  0  0
 16 18  2  0  0  0  0
 18 19  1  0  0  0  0
 18 35  1  0  0  0  0
 19 36  1  0  0  0  0
 20 21  1  0  0  0  0
 20 25  1  0  0  0  0
 21 22  2  0  0  0  0
 21 37  1  0  0  0  0
 22 23  1  0  0  0  0
 22 38  1  0  0  0  0
 23 24  2  0  0  0  0
 23 39  1  0  0  0  0
 24 25  1  0  0  0  0
 24 40  1  0  0  0  0
 26 27  1  0  0  0  0
 26 41  1  0  0  0  0
 27 42  1  0  0  0  0
M  END
$$$$
