CHEMBL473268
 OpenBabel04072215383D

 39 41  0  0  0  0  0  0  0  0999 V2000
    1.0422    0.4808    0.5246 O   0  0  0  0  0  0  0  0  0  0  0  0
    2.1436    0.1532    0.0877 C   0  0  0  0  0  0  0  0  0  0  0  0
    2.6810   -1.1287    0.1626 N   0  0  0  0  0  0  0  0  0  0  0  0
    2.0524   -2.2455    0.7519 C   0  0  0  0  0  0  0  0  0  0  0  0
    0.6858   -2.2787    1.0207 C   0  0  0  0  0  0  0  0  0  0  0  0
    0.1141   -3.3629    1.6837 C   0  0  0  0  0  0  0  0  0  0  0  0
    0.8977   -4.4446    2.0862 C   0  0  0  0  0  0  0  0  0  0  0  0
    0.0759   -5.7007    2.9342 Cl  0  0  0  0  0  0  0  0  0  0  0  0
    2.2667   -4.4625    1.7990 C   0  0  0  0  0  0  0  0  0  0  0  0
    3.1938   -5.5826    2.1973 C   0  0  0  0  0  0  0  0  0  0  0  0
    2.6648   -6.5668    2.9690 F   0  0  0  0  0  0  0  0  0  0  0  0
    3.7205   -6.2140    1.1092 F   0  0  0  0  0  0  0  0  0  0  0  0
    4.2686   -5.1177    2.8995 F   0  0  0  0  0  0  0  0  0  0  0  0
    2.8276   -3.3572    1.1039 C   0  0  0  0  0  0  0  0  0  0  0  0
    3.0354    1.1590   -0.5185 C   0  0  0  0  0  0  0  0  0  0  0  0
    4.1819    0.7868   -1.1081 N   0  0  0  0  0  0  0  0  0  0  0  0
    4.9265    2.1347   -1.7247 S   0  0  0  0  0  0  0  0  0  0  0  0
    3.7682    3.2631   -1.1725 C   0  0  0  0  0  0  0  0  0  0  0  0
    2.7741    2.5874   -0.5025 C   0  0  0  0  0  0  0  0  0  0  0  0
    1.6647    3.1514    0.0554 N   0  0  0  0  0  0  0  0  0  0  0  0
    1.6318    4.4609    0.6849 C   0  0  0  0  0  0  0  0  0  0  0  0
    1.4111    4.4162    2.1856 C   0  0  0  0  0  0  0  0  0  0  0  0
    1.9385    5.4497    2.9739 C   0  0  0  0  0  0  0  0  0  0  0  0
    1.6745    5.4738    4.3368 C   0  0  0  0  0  0  0  0  0  0  0  0
    0.9246    4.5518    4.9703 N   0  0  0  0  0  0  0  0  0  0  0  0
    0.4131    3.5667    4.2032 C   0  0  0  0  0  0  0  0  0  0  0  0
    0.6170    3.4610    2.8316 C   0  0  0  0  0  0  0  0  0  0  0  0
    3.6541   -1.1999   -0.1233 H   0  0  0  0  0  0  0  0  0  0  0  0
    0.0212   -1.4756    0.7181 H   0  0  0  0  0  0  0  0  0  0  0  0
   -0.9539   -3.3425    1.8909 H   0  0  0  0  0  0  0  0  0  0  0  0
    3.8956   -3.3672    0.8818 H   0  0  0  0  0  0  0  0  0  0  0  0
    3.8599    4.3172   -1.3867 H   0  0  0  0  0  0  0  0  0  0  0  0
    0.9329    2.5142    0.3817 H   0  0  0  0  0  0  0  0  0  0  0  0
    0.8128    5.0394    0.2430 H   0  0  0  0  0  0  0  0  0  0  0  0
    2.5579    5.0117    0.4836 H   0  0  0  0  0  0  0  0  0  0  0  0
    2.5401    6.2417    2.5374 H   0  0  0  0  0  0  0  0  0  0  0  0
    2.0640    6.2683    4.9681 H   0  0  0  0  0  0  0  0  0  0  0  0
   -0.1963    2.8405    4.7352 H   0  0  0  0  0  0  0  0  0  0  0  0
    0.1463    2.6406    2.3017 H   0  0  0  0  0  0  0  0  0  0  0  0
  1  2  2  0  0  0  0
  2  3  1  0  0  0  0
  2 15  1  0  0  0  0
  3  4  1  0  0  0  0
  3 28  1  0  0  0  0
  4  5  1  0  0  0  0
  4 14  2  0  0  0  0
  5  6  2  0  0  0  0
  5 29  1  0  0  0  0
  6  7  1  0  0  0  0
  6 30  1  0  0  0  0
  7  8  1  0  0  0  0
  7  9  2  0  0  0  0
  9 10  1  0  0  0  0
  9 14  1  0  0  0  0
 10 11  1  0  0  0  0
 10 12  1  0  0  0  0
 10 13  1  0  0  0  0
 14 31  1  0  0  0  0
 15 16  2  0  0  0  0
 15 19  1  0  0  0  0
 16 17  1  0  0  0  0
 17 18  1  0  0  0  0
 18 19  2  0  0  0  0
 18 32  1  0  0  0  0
 19 20  1  0  0  0  0
 20 21  1  0  0  0  0
 20 33  1  0  0  0  0
 21 22  1  0  0  0  0
 21 34  1  0  0  0  0
 21 35  1  0  0  0  0
 22 23  1  0  0  0  0
 22 27  2  0  0  0  0
 23 24  2  0  0  0  0
 23 36  1  0  0  0  0
 24 25  1  0  0  0  0
 24 37  1  0  0  0  0
 25 26  2  0  0  0  0
 26 27  1  0  0  0  0
 26 38  1  0  0  0  0
 27 39  1  0  0  0  0
M  END
$$$$
