CHEMBL572878
 OpenBabel04072215383D

 61 65  0  0  0  0  0  0  0  0999 V2000
    1.9514   -0.2417   -4.5503 C   0  0  0  0  0  0  0  0  0  0  0  0
    2.2704    0.0163   -3.1337 C   0  0  0  0  0  0  0  0  0  0  0  0
    2.0283    1.1085   -2.3365 C   0  0  0  0  0  0  0  0  0  0  0  0
    2.5536    0.7746   -1.0696 C   0  0  0  0  0  0  0  0  0  0  0  0
    2.4805    1.5681    0.0173 N   0  0  0  0  0  0  0  0  0  0  0  0
    2.3842    2.9723    0.0256 C   0  0  0  0  0  0  0  0  0  0  0  0
    1.7463    3.5722    1.0900 C   0  0  0  0  0  0  0  0  0  0  0  0
    1.5554    4.9399    1.0561 C   0  0  0  0  0  0  0  0  0  0  0  0
    0.9581    5.6075    2.1030 N   0  0  0  0  0  0  0  0  0  0  0  0
    0.1465    6.8013    1.8300 C   0  0  0  0  0  0  0  0  0  0  0  0
    0.3432    7.8413    2.9580 C   0  0  0  0  0  0  0  0  0  0  0  0
    0.0785    7.2776    4.3049 N   0  0  0  0  0  0  0  0  0  0  0  0
    0.3096    8.2817    5.3397 C   0  0  0  0  0  0  0  0  0  0  0  0
    0.9576    6.1080    4.5149 C   0  0  0  0  0  0  0  0  0  0  0  0
    0.7634    5.0222    3.4330 C   0  0  0  0  0  0  0  0  0  0  0  0
    1.9994    5.6584    0.0081 N   0  0  0  0  0  0  0  0  0  0  0  0
    2.6387    5.0042   -0.9758 C   0  0  0  0  0  0  0  0  0  0  0  0
    3.3723    5.9537   -2.2918 S   0  0  0  0  0  0  0  0  0  0  0  0
    2.1250    5.8627   -3.5610 C   0  0  0  0  0  0  0  0  0  0  0  0
    0.8367    6.3354   -3.3229 C   0  0  0  0  0  0  0  0  0  0  0  0
   -0.1247    6.3389   -4.3421 C   0  0  0  0  0  0  0  0  0  0  0  0
    0.1750    5.8779   -5.6274 C   0  0  0  0  0  0  0  0  0  0  0  0
   -0.7730    5.8446   -6.6849 N   0  0  0  0  0  0  0  0  0  0  0  0
   -2.0853    6.2758   -6.6181 C   0  0  0  0  0  0  0  0  0  0  0  0
   -2.6074    6.8600   -5.6729 O   0  0  0  0  0  0  0  0  0  0  0  0
   -2.9767    5.9923   -7.7844 C   0  0  0  0  0  0  0  0  0  0  0  0
   -2.9371    4.6645   -8.5023 C   0  0  0  0  0  0  0  0  0  0  0  0
   -2.5580    5.9268   -9.2270 C   0  0  0  0  0  0  0  0  0  0  0  0
    1.4716    5.4083   -5.8706 C   0  0  0  0  0  0  0  0  0  0  0  0
    2.4385    5.4035   -4.8455 C   0  0  0  0  0  0  0  0  0  0  0  0
    2.8418    3.6855   -1.0104 N   0  0  0  0  0  0  0  0  0  0  0  0
    3.0659   -0.4574   -1.0596 N   0  0  0  0  0  0  0  0  0  0  0  0
    2.9171   -0.8760   -2.3281 N   0  0  0  0  0  0  0  0  0  0  0  0
    1.3681    0.5834   -4.9718 H   0  0  0  0  0  0  0  0  0  0  0  0
    1.3602   -1.1572   -4.6525 H   0  0  0  0  0  0  0  0  0  0  0  0
    2.8666   -0.3453   -5.1416 H   0  0  0  0  0  0  0  0  0  0  0  0
    1.5298    2.0229   -2.6255 H   0  0  0  0  0  0  0  0  0  0  0  0
    2.8889    1.1935    0.8617 H   0  0  0  0  0  0  0  0  0  0  0  0
    1.3508    2.9594    1.8874 H   0  0  0  0  0  0  0  0  0  0  0  0
   -0.9119    6.5099    1.7839 H   0  0  0  0  0  0  0  0  0  0  0  0
    0.3874    7.2752    0.8720 H   0  0  0  0  0  0  0  0  0  0  0  0
   -0.3337    8.6839    2.7745 H   0  0  0  0  0  0  0  0  0  0  0  0
    1.3713    8.2248    2.9039 H   0  0  0  0  0  0  0  0  0  0  0  0
   -0.3708    9.1295    5.2075 H   0  0  0  0  0  0  0  0  0  0  0  0
    1.3389    8.6579    5.3346 H   0  0  0  0  0  0  0  0  0  0  0  0
    0.1019    7.8622    6.3305 H   0  0  0  0  0  0  0  0  0  0  0  0
    0.7545    5.6586    5.4941 H   0  0  0  0  0  0  0  0  0  0  0  0
    2.0113    6.4212    4.5106 H   0  0  0  0  0  0  0  0  0  0  0  0
   -0.2401    4.5845    3.5067 H   0  0  0  0  0  0  0  0  0  0  0  0
    1.4923    4.2317    3.6434 H   0  0  0  0  0  0  0  0  0  0  0  0
    0.5608    6.7233   -2.3441 H   0  0  0  0  0  0  0  0  0  0  0  0
   -1.1038    6.7201   -4.0806 H   0  0  0  0  0  0  0  0  0  0  0  0
   -0.4625    5.4452   -7.5606 H   0  0  0  0  0  0  0  0  0  0  0  0
   -3.9709    6.4078   -7.6212 H   0  0  0  0  0  0  0  0  0  0  0  0
   -3.8956    4.2039   -8.7203 H   0  0  0  0  0  0  0  0  0  0  0  0
   -2.1546    3.9531   -8.2739 H   0  0  0  0  0  0  0  0  0  0  0  0
   -3.2630    6.3085   -9.9618 H   0  0  0  0  0  0  0  0  0  0  0  0
   -1.5257    6.0858   -9.4972 H   0  0  0  0  0  0  0  0  0  0  0  0
    1.7598    5.0484   -6.8534 H   0  0  0  0  0  0  0  0  0  0  0  0
    3.4425    5.0438   -5.0665 H   0  0  0  0  0  0  0  0  0  0  0  0
    3.2716   -1.7961   -2.5706 H   0  0  0  0  0  0  0  0  0  0  0  0
  1  2  1  0  0  0  0
  1 34  1  0  0  0  0
  1 35  1  0  0  0  0
  1 36  1  0  0  0  0
  2  3  2  0  0  0  0
  2 33  1  0  0  0  0
  3  4  1  0  0  0  0
  3 37  1  0  0  0  0
  4  5  1  0  0  0  0
  4 32  2  0  0  0  0
  5  6  1  0  0  0  0
  5 38  1  0  0  0  0
  6  7  1  0  0  0  0
  6 31  2  0  0  0  0
  7  8  2  0  0  0  0
  7 39  1  0  0  0  0
  8  9  1  0  0  0  0
  8 16  1  0  0  0  0
  9 10  1  0  0  0  0
  9 15  1  0  0  0  0
 10 11  1  0  0  0  0
 10 40  1  0  0  0  0
 10 41  1  0  0  0  0
 11 12  1  0  0  0  0
 11 42  1  0  0  0  0
 11 43  1  0  0  0  0
 12 13  1  0  0  0  0
 12 14  1  0  0  0  0
 13 44  1  0  0  0  0
 13 45  1  0  0  0  0
 13 46  1  0  0  0  0
 14 15  1  0  0  0  0
 14 47  1  0  0  0  0
 14 48  1  0  0  0  0
 15 49  1  0  0  0  0
 15 50  1  0  0  0  0
 16 17  2  0  0  0  0
 17 18  1  0  0  0  0
 17 31  1  0  0  0  0
 18 19  1  0  0  0  0
 19 20  1  0  0  0  0
 19 30  2  0  0  0  0
 20 21  2  0  0  0  0
 20 51  1  0  0  0  0
 21 22  1  0  0  0  0
 21 52  1  0  0  0  0
 22 23  1  0  0  0  0
 22 29  2  0  0  0  0
 23 24  1  0  0  0  0
 23 53  1  0  0  0  0
 24 25  2  0  0  0  0
 24 26  1  0  0  0  0
 26 27  1  0  0  0  0
 26 28  1  0  0  0  0
 26 54  1  0  0  0  0
 27 28  1  0  0  0  0
 27 55  1  0  0  0  0
 27 56  1  0  0  0  0
 28 57  1  0  0  0  0
 28 58  1  0  0  0  0
 29 30  1  0  0  0  0
 29 59  1  0  0  0  0
 30 60  1  0  0  0  0
 32 33  1  0  0  0  0
 33 61  1  0  0  0  0
M  END
$$$$
