CHEMBL453593
 OpenBabel04072215383D

 58 61  0  0  1  0  0  0  0  0999 V2000
    6.5715   -3.4355    3.5150 C   0  0  0  0  0  0  0  0  0  0  0  0
    5.7950   -2.2711    3.2622 O   0  0  0  0  0  0  0  0  0  0  0  0
    4.9030   -2.3317    2.2199 C   0  0  0  0  0  0  0  0  0  0  0  0
    4.3993   -3.5544    1.7312 C   0  0  0  0  0  0  0  0  0  0  0  0
    3.4371   -3.5869    0.7205 C   0  0  0  0  0  0  0  0  0  0  0  0
    2.9042   -4.8517    0.1968 C   0  0  0  0  0  0  0  0  0  0  0  0
    2.7782   -6.0811    0.7285 C   0  0  0  0  0  0  0  0  0  0  0  0
    3.3108   -6.7300    1.8804 C   0  0  0  0  0  0  0  0  0  0  0  0
    4.5030   -7.4164    1.7538 C   0  0  0  0  0  0  0  0  0  0  0  0
    4.2933   -8.6296    2.3659 N   0  0  0  0  0  0  0  0  0  0  0  0
    5.0340   -9.8311    2.0077 C   0  0  0  0  0  0  0  0  0  0  0  0
    4.3708  -10.5978    0.8485 C   0  0  3  0  0  0  0  0  0  0  0  0
    4.3398   -9.8142   -0.3523 O   0  0  0  0  0  0  0  0  0  0  0  0
    5.1353  -11.8984    0.5711 C   0  0  0  0  0  0  0  0  0  0  0  0
    4.5638  -12.6351   -0.5077 O   0  0  0  0  0  0  0  0  0  0  0  0
    3.1779   -8.5677    3.1750 C   0  0  0  0  0  0  0  0  0  0  0  0
    2.5701   -9.5394    3.9854 C   0  0  0  0  0  0  0  0  0  0  0  0
    1.4330   -9.1731    4.7089 C   0  0  0  0  0  0  0  0  0  0  0  0
    0.9149   -7.8845    4.6219 C   0  0  0  0  0  0  0  0  0  0  0  0
    1.4685   -6.9512    3.7357 C   0  0  0  0  0  0  0  0  0  0  0  0
    2.6116   -7.2973    2.9862 C   0  0  0  0  0  0  0  0  0  0  0  0
    2.1221   -7.0679   -0.1970 C   0  0  0  0  0  0  0  0  0  0  0  0
    2.0238   -6.3173   -1.3923 N   0  0  0  0  0  0  0  0  0  0  0  0
    2.5012   -5.0454   -1.2350 C   0  0  0  0  0  0  0  0  0  0  0  0
    2.6462   -4.2525   -2.1482 O   0  0  0  0  0  0  0  0  0  0  0  0
    2.9581   -2.3651    0.2156 C   0  0  0  0  0  0  0  0  0  0  0  0
    3.4173   -1.1425    0.7052 C   0  0  0  0  0  0  0  0  0  0  0  0
    2.9808    0.0712    0.2292 O   0  0  0  0  0  0  0  0  0  0  0  0
    1.6247    0.1111   -0.2080 C   0  0  0  0  0  0  0  0  0  0  0  0
    4.4194   -1.1128    1.6932 C   0  0  0  0  0  0  0  0  0  0  0  0
    4.7972    0.1391    2.1127 O   0  0  0  0  0  0  0  0  0  0  0  0
    6.1614    0.3053    2.4776 C   0  0  0  0  0  0  0  0  0  0  0  0
    7.3113   -3.1815    4.2804 H   0  0  0  0  0  0  0  0  0  0  0  0
    7.1118   -3.7510    2.6164 H   0  0  0  0  0  0  0  0  0  0  0  0
    5.9545   -4.2458    3.9145 H   0  0  0  0  0  0  0  0  0  0  0  0
    4.7595   -4.4882    2.1445 H   0  0  0  0  0  0  0  0  0  0  0  0
    5.2999   -7.3064    1.0287 H   0  0  0  0  0  0  0  0  0  0  0  0
    5.1122  -10.4528    2.9047 H   0  0  0  0  0  0  0  0  0  0  0  0
    6.0429   -9.5073    1.7267 H   0  0  0  0  0  0  0  0  0  0  0  0
    3.3252  -10.8281    1.0850 H   0  0  0  0  0  0  0  0  0  0  0  0
    5.2496   -9.6883   -0.6740 H   0  0  0  0  0  0  0  0  0  0  0  0
    5.1414  -12.5424    1.4539 H   0  0  0  0  0  0  0  0  0  0  0  0
    6.1694  -11.6818    0.2863 H   0  0  0  0  0  0  0  0  0  0  0  0
    3.6068  -12.4585   -0.5340 H   0  0  0  0  0  0  0  0  0  0  0  0
    2.9544  -10.5520    4.0484 H   0  0  0  0  0  0  0  0  0  0  0  0
    0.9471   -9.9072    5.3484 H   0  0  0  0  0  0  0  0  0  0  0  0
    0.0533   -7.6095    5.2263 H   0  0  0  0  0  0  0  0  0  0  0  0
    1.0322   -5.9599    3.6491 H   0  0  0  0  0  0  0  0  0  0  0  0
    1.1202   -7.3532    0.1367 H   0  0  0  0  0  0  0  0  0  0  0  0
    2.7209   -7.9581   -0.3919 H   0  0  0  0  0  0  0  0  0  0  0  0
    1.8953   -6.7128   -2.3131 H   0  0  0  0  0  0  0  0  0  0  0  0
    2.2186   -2.3777   -0.5830 H   0  0  0  0  0  0  0  0  0  0  0  0
    1.3223    1.1630   -0.2676 H   0  0  0  0  0  0  0  0  0  0  0  0
    0.9538   -0.3862    0.5038 H   0  0  0  0  0  0  0  0  0  0  0  0
    1.5213   -0.3191   -1.2093 H   0  0  0  0  0  0  0  0  0  0  0  0
    6.4175    1.3613    2.3428 H   0  0  0  0  0  0  0  0  0  0  0  0
    6.8399   -0.2808    1.8478 H   0  0  0  0  0  0  0  0  0  0  0  0
    6.2999    0.0737    3.5377 H   0  0  0  0  0  0  0  0  0  0  0  0
  1  2  1  0  0  0  0
  1 33  1  0  0  0  0
  1 34  1  0  0  0  0
  1 35  1  0  0  0  0
  2  3  1  0  0  0  0
  3  4  1  0  0  0  0
  3 30  2  0  0  0  0
  4  5  2  0  0  0  0
  4 36  1  0  0  0  0
  5  6  1  0  0  0  0
  5 26  1  0  0  0  0
  6  7  2  0  0  0  0
  6 24  1  0  0  0  0
  7  8  1  0  0  0  0
  7 22  1  0  0  0  0
  8  9  2  0  0  0  0
  8 21  1  0  0  0  0
  9 10  1  0  0  0  0
  9 37  1  0  0  0  0
 10 11  1  0  0  0  0
 10 16  1  0  0  0  0
 11 12  1  0  0  0  0
 11 38  1  0  0  0  0
 11 39  1  0  0  0  0
 12 13  1  0  0  0  0
 12 14  1  0  0  0  0
 12 40  1  0  0  0  0
 13 41  1  0  0  0  0
 14 15  1  0  0  0  0
 14 42  1  0  0  0  0
 14 43  1  0  0  0  0
 15 44  1  0  0  0  0
 16 17  1  0  0  0  0
 16 21  2  0  0  0  0
 17 18  2  0  0  0  0
 17 45  1  0  0  0  0
 18 19  1  0  0  0  0
 18 46  1  0  0  0  0
 19 20  2  0  0  0  0
 19 47  1  0  0  0  0
 20 21  1  0  0  0  0
 20 48  1  0  0  0  0
 22 23  1  0  0  0  0
 22 49  1  0  0  0  0
 22 50  1  0  0  0  0
 23 24  1  0  0  0  0
 23 51  1  0  0  0  0
 24 25  2  0  0  0  0
 26 27  2  0  0  0  0
 26 52  1  0  0  0  0
 27 28  1  0  0  0  0
 27 30  1  0  0  0  0
 28 29  1  0  0  0  0
 29 53  1  0  0  0  0
 29 54  1  0  0  0  0
 29 55  1  0  0  0  0
 30 31  1  0  0  0  0
 31 32  1  0  0  0  0
 32 56  1  0  0  0  0
 32 57  1  0  0  0  0
 32 58  1  0  0  0  0
M  END
$$$$
