CHEMBL2001099
 OpenBabel04072215363D

 55 59  0  0  0  0  0  0  0  0999 V2000
    3.3367    3.9571    3.9910 N   0  0  0  0  0  0  0  0  0  0  0  0
    2.9749    2.6862    4.3338 C   0  0  0  0  0  0  0  0  0  0  0  0
    2.1085    2.4793    5.1744 O   0  0  0  0  0  0  0  0  0  0  0  0
    3.6602    1.5725    3.6375 C   0  0  0  0  0  0  0  0  0  0  0  0
    3.2821    0.2433    3.9065 C   0  0  0  0  0  0  0  0  0  0  0  0
    3.8880   -0.8269    3.2420 C   0  0  0  0  0  0  0  0  0  0  0  0
    4.8914   -0.6135    2.2927 C   0  0  0  0  0  0  0  0  0  0  0  0
    5.2540    0.7100    2.0507 C   0  0  0  0  0  0  0  0  0  0  0  0
    6.1742    1.2628    1.1994 N   0  0  0  0  0  0  0  0  0  0  0  0
    6.1461    2.6300    1.3378 C   0  0  0  0  0  0  0  0  0  0  0  0
    6.9868    3.5372    0.5643 C   0  0  0  0  0  0  0  0  0  0  0  0
    6.5759    4.8418    0.3179 C   0  0  0  0  0  0  0  0  0  0  0  0
    7.3884    5.6838   -0.4389 C   0  0  0  0  0  0  0  0  0  0  0  0
    8.6042    5.2253   -0.9492 C   0  0  0  0  0  0  0  0  0  0  0  0
    9.3829    6.0571   -1.7293 N   0  0  0  0  0  0  0  0  0  0  0  0
   10.3213    5.4651   -2.6903 C   0  0  0  0  0  0  0  0  0  0  0  0
   11.7868    5.8018   -2.3482 C   0  0  0  0  0  0  0  0  0  0  0  0
   12.0570    7.2469   -2.1560 N   0  0  0  0  0  0  0  0  0  0  0  0
   11.8163    8.0601   -3.3663 C   0  0  0  0  0  0  0  0  0  0  0  0
   12.6474    7.6921   -4.5783 C   0  0  0  0  0  0  0  0  0  0  0  0
   12.0267    7.2525   -5.7594 C   0  0  0  0  0  0  0  0  0  0  0  0
   12.7849    6.9315   -6.8881 C   0  0  0  0  0  0  0  0  0  0  0  0
   14.1710    7.0647   -6.8550 C   0  0  0  0  0  0  0  0  0  0  0  0
   14.7977    7.5213   -5.6971 C   0  0  0  0  0  0  0  0  0  0  0  0
   14.0417    7.8281   -4.5626 C   0  0  0  0  0  0  0  0  0  0  0  0
   11.1636    7.6976   -1.0595 C   0  0  0  0  0  0  0  0  0  0  0  0
    9.6501    7.4265   -1.2684 C   0  0  0  0  0  0  0  0  0  0  0  0
    9.0049    3.9578   -0.7219 N   0  0  0  0  0  0  0  0  0  0  0  0
    8.2113    3.1597    0.0325 C   0  0  0  0  0  0  0  0  0  0  0  0
    5.2326    2.9773    2.2226 N   0  0  0  0  0  0  0  0  0  0  0  0
    4.6737    1.7996    2.6873 C   0  0  0  0  0  0  0  0  0  0  0  0
    2.8719    4.7373    4.4310 H   0  0  0  0  0  0  0  0  0  0  0  0
    4.0502    4.1276    3.2865 H   0  0  0  0  0  0  0  0  0  0  0  0
    2.4978    0.0450    4.6355 H   0  0  0  0  0  0  0  0  0  0  0  0
    3.5682   -1.8439    3.4630 H   0  0  0  0  0  0  0  0  0  0  0  0
    5.3561   -1.4442    1.7697 H   0  0  0  0  0  0  0  0  0  0  0  0
    6.7519    0.7491    0.5519 H   0  0  0  0  0  0  0  0  0  0  0  0
    5.6235    5.2064    0.6931 H   0  0  0  0  0  0  0  0  0  0  0  0
    7.0438    6.6882   -0.6634 H   0  0  0  0  0  0  0  0  0  0  0  0
   10.0744    5.8693   -3.6792 H   0  0  0  0  0  0  0  0  0  0  0  0
   10.2088    4.3789   -2.7901 H   0  0  0  0  0  0  0  0  0  0  0  0
   12.4522    5.3841   -3.1124 H   0  0  0  0  0  0  0  0  0  0  0  0
   12.0554    5.2776   -1.4206 H   0  0  0  0  0  0  0  0  0  0  0  0
   12.0537    9.1074   -3.1330 H   0  0  0  0  0  0  0  0  0  0  0  0
   10.7586    8.0597   -3.6537 H   0  0  0  0  0  0  0  0  0  0  0  0
   10.9440    7.1641   -5.8140 H   0  0  0  0  0  0  0  0  0  0  0  0
   12.2938    6.5849   -7.7929 H   0  0  0  0  0  0  0  0  0  0  0  0
   14.7619    6.8174   -7.7337 H   0  0  0  0  0  0  0  0  0  0  0  0
   15.8777    7.6413   -5.6770 H   0  0  0  0  0  0  0  0  0  0  0  0
   14.5419    8.1806   -3.6631 H   0  0  0  0  0  0  0  0  0  0  0  0
   11.3165    8.7677   -0.8717 H   0  0  0  0  0  0  0  0  0  0  0  0
   11.4813    7.1933   -0.1360 H   0  0  0  0  0  0  0  0  0  0  0  0
    9.2432    8.1190   -2.0131 H   0  0  0  0  0  0  0  0  0  0  0  0
    9.1433    7.6541   -0.3232 H   0  0  0  0  0  0  0  0  0  0  0  0
    8.6279    2.1717    0.2034 H   0  0  0  0  0  0  0  0  0  0  0  0
  1  2  1  0  0  0  0
  1 32  1  0  0  0  0
  1 33  1  0  0  0  0
  2  3  2  0  0  0  0
  2  4  1  0  0  0  0
  4  5  1  0  0  0  0
  4 31  2  0  0  0  0
  5  6  2  0  0  0  0
  5 34  1  0  0  0  0
  6  7  1  0  0  0  0
  6 35  1  0  0  0  0
  7  8  2  0  0  0  0
  7 36  1  0  0  0  0
  8  9  1  0  0  0  0
  8 31  1  0  0  0  0
  9 10  1  0  0  0  0
  9 37  1  0  0  0  0
 10 11  1  0  0  0  0
 10 30  2  0  0  0  0
 11 12  1  0  0  0  0
 11 29  2  0  0  0  0
 12 13  2  0  0  0  0
 12 38  1  0  0  0  0
 13 14  1  0  0  0  0
 13 39  1  0  0  0  0
 14 15  1  0  0  0  0
 14 28  2  0  0  0  0
 15 16  1  0  0  0  0
 15 27  1  0  0  0  0
 16 17  1  0  0  0  0
 16 40  1  0  0  0  0
 16 41  1  0  0  0  0
 17 18  1  0  0  0  0
 17 42  1  0  0  0  0
 17 43  1  0  0  0  0
 18 19  1  0  0  0  0
 18 26  1  0  0  0  0
 19 20  1  0  0  0  0
 19 44  1  0  0  0  0
 19 45  1  0  0  0  0
 20 21  1  0  0  0  0
 20 25  2  0  0  0  0
 21 22  2  0  0  0  0
 21 46  1  0  0  0  0
 22 23  1  0  0  0  0
 22 47  1  0  0  0  0
 23 24  2  0  0  0  0
 23 48  1  0  0  0  0
 24 25  1  0  0  0  0
 24 49  1  0  0  0  0
 25 50  1  0  0  0  0
 26 27  1  0  0  0  0
 26 51  1  0  0  0  0
 26 52  1  0  0  0  0
 27 53  1  0  0  0  0
 27 54  1  0  0  0  0
 28 29  1  0  0  0  0
 29 55  1  0  0  0  0
 30 31  1  0  0  0  0
M  END
$$$$
