CHEMBL117052
 OpenBabel04072215363D

 48 52  0  0  1  0  0  0  0  0999 V2000
    1.7777    3.4825    3.7547 N   0  0  0  0  0  0  0  0  0  0  0  0
    2.7161    2.4195    3.4148 C   0  0  3  0  0  0  0  0  0  0  0  0
    3.6645    2.1364    4.5775 C   0  0  0  0  0  0  0  0  0  0  0  0
    4.9731    1.7000    3.9311 C   0  0  0  0  0  0  0  0  0  0  0  0
    4.8350    1.9430    2.4999 N   0  0  0  0  0  0  0  0  0  0  0  0
    5.6371    1.4980    1.4535 C   0  0  0  0  0  0  0  0  0  0  0  0
    5.3075    1.6163    0.2745 O   0  0  0  0  0  0  0  0  0  0  0  0
    6.9452    0.8496    1.7508 C   0  0  0  0  0  0  0  0  0  0  0  0
    7.4430   -0.1655    0.9225 C   0  0  0  0  0  0  0  0  0  0  0  0
    8.6752   -0.7919    1.1898 C   0  0  0  0  0  0  0  0  0  0  0  0
    9.3684   -0.3830    2.3370 C   0  0  0  0  0  0  0  0  0  0  0  0
   10.5689   -0.7893    2.8759 N   0  0  0  0  0  0  0  0  0  0  0  0
   10.8716   -0.0683    4.0171 C   0  0  0  0  0  0  0  0  0  0  0  0
   12.1257   -0.1958    4.7630 C   0  0  0  0  0  0  0  0  0  0  0  0
   12.3263    0.5457    5.9303 C   0  0  0  0  0  0  0  0  0  0  0  0
   13.5660    0.5383    6.5788 C   0  0  0  0  0  0  0  0  0  0  0  0
   13.7933    1.3240    7.7221 C   0  0  0  0  0  0  0  0  0  0  0  0
   15.0486    1.3400    8.3180 C   0  0  0  0  0  0  0  0  0  0  0  0
   16.0736    0.5710    7.7785 C   0  0  0  0  0  0  0  0  0  0  0  0
   15.8351   -0.2232    6.6510 C   0  0  0  0  0  0  0  0  0  0  0  0
   14.5934   -0.2582    6.0335 C   0  0  0  0  0  0  0  0  0  0  0  0
   14.4120   -1.0228    4.9405 N   0  0  0  0  0  0  0  0  0  0  0  0
   13.2052   -0.9653    4.3467 C   0  0  0  0  0  0  0  0  0  0  0  0
   13.1437   -1.7482    3.2351 O   0  0  0  0  0  0  0  0  0  0  0  0
    9.8180    0.8027    4.2139 C   0  0  0  0  0  0  0  0  0  0  0  0
    8.9029    0.6386    3.1534 C   0  0  0  0  0  0  0  0  0  0  0  0
    7.7227    1.3044    2.8143 C   0  0  0  0  0  0  0  0  0  0  0  0
    3.6552    2.7457    2.2441 C   0  0  0  0  0  0  0  0  0  0  0  0
    1.1984    3.1911    4.5406 H   0  0  0  0  0  0  0  0  0  0  0  0
    1.1484    3.6508    2.9711 H   0  0  0  0  0  0  0  0  0  0  0  0
    2.1643    1.5047    3.1810 H   0  0  0  0  0  0  0  0  0  0  0  0
    3.2722    1.3668    5.2505 H   0  0  0  0  0  0  0  0  0  0  0  0
    3.8439    3.0317    5.1882 H   0  0  0  0  0  0  0  0  0  0  0  0
    5.2272    0.6563    4.1265 H   0  0  0  0  0  0  0  0  0  0  0  0
    5.7547    2.3511    4.3316 H   0  0  0  0  0  0  0  0  0  0  0  0
    6.8772   -0.4677    0.0422 H   0  0  0  0  0  0  0  0  0  0  0  0
    9.0668   -1.5613    0.5314 H   0  0  0  0  0  0  0  0  0  0  0  0
   11.1823   -1.4902    2.4780 H   0  0  0  0  0  0  0  0  0  0  0  0
   11.5283    1.1632    6.3320 H   0  0  0  0  0  0  0  0  0  0  0  0
   12.9989    1.9367    8.1424 H   0  0  0  0  0  0  0  0  0  0  0  0
   15.2315    1.9607    9.1913 H   0  0  0  0  0  0  0  0  0  0  0  0
   17.0637    0.5880    8.2269 H   0  0  0  0  0  0  0  0  0  0  0  0
   16.6437   -0.8205    6.2377 H   0  0  0  0  0  0  0  0  0  0  0  0
   14.0530   -2.1018    3.2485 H   0  0  0  0  0  0  0  0  0  0  0  0
    9.7210    1.5254    5.0126 H   0  0  0  0  0  0  0  0  0  0  0  0
    7.4532    2.1795    3.3852 H   0  0  0  0  0  0  0  0  0  0  0  0
    3.2045    2.5307    1.2708 H   0  0  0  0  0  0  0  0  0  0  0  0
    3.9762    3.7944    2.2584 H   0  0  0  0  0  0  0  0  0  0  0  0
  1  2  1  0  0  0  0
  1 29  1  0  0  0  0
  1 30  1  0  0  0  0
  2  3  1  0  0  0  0
  2 28  1  0  0  0  0
  2 31  1  0  0  0  0
  3  4  1  0  0  0  0
  3 32  1  0  0  0  0
  3 33  1  0  0  0  0
  4  5  1  0  0  0  0
  4 34  1  0  0  0  0
  4 35  1  0  0  0  0
  5  6  1  0  0  0  0
  5 28  1  0  0  0  0
  6  7  2  0  0  0  0
  6  8  1  0  0  0  0
  8  9  1  0  0  0  0
  8 27  2  0  0  0  0
  9 10  2  0  0  0  0
  9 36  1  0  0  0  0
 10 11  1  0  0  0  0
 10 37  1  0  0  0  0
 11 12  1  0  0  0  0
 11 26  2  0  0  0  0
 12 13  1  0  0  0  0
 12 38  1  0  0  0  0
 13 14  1  0  0  0  0
 13 25  2  0  0  0  0
 14 15  1  0  0  0  0
 14 23  2  0  0  0  0
 15 16  2  0  0  0  0
 15 39  1  0  0  0  0
 16 17  1  0  0  0  0
 16 21  1  0  0  0  0
 17 18  2  0  0  0  0
 17 40  1  0  0  0  0
 18 19  1  0  0  0  0
 18 41  1  0  0  0  0
 19 20  2  0  0  0  0
 19 42  1  0  0  0  0
 20 21  1  0  0  0  0
 20 43  1  0  0  0  0
 21 22  2  0  0  0  0
 22 23  1  0  0  0  0
 23 24  1  0  0  0  0
 24 44  1  0  0  0  0
 25 26  1  0  0  0  0
 25 45  1  0  0  0  0
 26 27  1  0  0  0  0
 27 46  1  0  0  0  0
 28 47  1  0  0  0  0
 28 48  1  0  0  0  0
M  END
$$$$
