CHEMBL3740492
 OpenBabel04072215373D

 55 60  0  0  0  0  0  0  0  0999 V2000
    2.4072    0.0998   -0.2081 C   0  0  0  0  0  0  0  0  0  0  0  0
    0.9140    0.0766   -0.1048 C   0  0  0  0  0  0  0  0  0  0  0  0
    0.0943   -1.0479   -0.0692 C   0  0  0  0  0  0  0  0  0  0  0  0
    0.3498   -2.4856   -0.1042 C   0  0  0  0  0  0  0  0  0  0  0  0
   -0.4645   -3.2517   -0.6178 O   0  0  0  0  0  0  0  0  0  0  0  0
    1.5598   -3.0020    0.5167 C   0  0  0  0  0  0  0  0  0  0  0  0
    2.2349   -2.4869    1.6082 C   0  0  0  0  0  0  0  0  0  0  0  0
    3.3124   -3.2481    1.9236 O   0  0  0  0  0  0  0  0  0  0  0  0
    3.3266   -4.3123    1.0681 C   0  0  0  0  0  0  0  0  0  0  0  0
    2.2635   -4.2033    0.1736 C   0  0  0  0  0  0  0  0  0  0  0  0
    2.1074   -5.2059   -0.8027 C   0  0  0  0  0  0  0  0  0  0  0  0
    2.9966   -6.2916   -0.8067 C   0  0  0  0  0  0  0  0  0  0  0  0
    2.8233   -7.2851   -1.7344 O   0  0  0  0  0  0  0  0  0  0  0  0
    4.0524   -6.4070    0.1202 C   0  0  0  0  0  0  0  0  0  0  0  0
    4.9320   -7.5043    0.1616 C   0  0  0  0  0  0  0  0  0  0  0  0
    5.9558   -7.5801    1.1155 C   0  0  0  0  0  0  0  0  0  0  0  0
    6.1314   -6.5553    2.0424 C   0  0  0  0  0  0  0  0  0  0  0  0
    5.2829   -5.4519    2.0275 C   0  0  0  0  0  0  0  0  0  0  0  0
    4.2412   -5.3931    1.0848 C   0  0  0  0  0  0  0  0  0  0  0  0
   -1.2055   -0.5854   -0.1022 N   0  0  0  0  0  0  0  0  0  0  0  0
   -1.2763    0.7900   -0.0756 C   0  0  0  0  0  0  0  0  0  0  0  0
   -2.5856    1.4849   -0.1148 C   0  0  0  0  0  0  0  0  0  0  0  0
   -3.7105    0.9689    0.5496 C   0  0  0  0  0  0  0  0  0  0  0  0
   -4.9163    1.6828    0.5884 C   0  0  0  0  0  0  0  0  0  0  0  0
   -5.0117    2.9348   -0.0150 C   0  0  0  0  0  0  0  0  0  0  0  0
   -3.9190    3.4480   -0.7028 C   0  0  0  0  0  0  0  0  0  0  0  0
   -2.7354    2.7087   -0.7849 C   0  0  0  0  0  0  0  0  0  0  0  0
    0.0500    1.2422   -0.0446 C   0  0  0  0  0  0  0  0  0  0  0  0
    0.4362    2.6628   -0.0293 C   0  0  0  0  0  0  0  0  0  0  0  0
   -0.2319    3.5938    0.7805 C   0  0  0  0  0  0  0  0  0  0  0  0
    0.0224    4.9643    0.6588 C   0  0  0  0  0  0  0  0  0  0  0  0
    1.0214    5.4163   -0.1982 C   0  0  0  0  0  0  0  0  0  0  0  0
    1.7550    4.5005   -0.9430 C   0  0  0  0  0  0  0  0  0  0  0  0
    1.4404    3.1407   -0.8819 C   0  0  0  0  0  0  0  0  0  0  0  0
    2.8366   -0.8887   -0.3750 H   0  0  0  0  0  0  0  0  0  0  0  0
    2.8461    0.5241    0.6996 H   0  0  0  0  0  0  0  0  0  0  0  0
    2.7402    0.6783   -1.0697 H   0  0  0  0  0  0  0  0  0  0  0  0
    2.0894   -1.6157    2.2350 H   0  0  0  0  0  0  0  0  0  0  0  0
    1.3016   -5.1345   -1.5257 H   0  0  0  0  0  0  0  0  0  0  0  0
    2.0068   -7.1175   -2.2296 H   0  0  0  0  0  0  0  0  0  0  0  0
    4.8163   -8.3181   -0.5508 H   0  0  0  0  0  0  0  0  0  0  0  0
    6.6077   -8.4513    1.1341 H   0  0  0  0  0  0  0  0  0  0  0  0
    6.9268   -6.6222    2.7808 H   0  0  0  0  0  0  0  0  0  0  0  0
    5.4188   -4.6548    2.7571 H   0  0  0  0  0  0  0  0  0  0  0  0
   -2.0074   -1.1999   -0.1638 H   0  0  0  0  0  0  0  0  0  0  0  0
   -3.6650    0.0178    1.0735 H   0  0  0  0  0  0  0  0  0  0  0  0
   -5.7783    1.2705    1.1072 H   0  0  0  0  0  0  0  0  0  0  0  0
   -5.9330    3.5078    0.0482 H   0  0  0  0  0  0  0  0  0  0  0  0
   -3.9746    4.4284   -1.1690 H   0  0  0  0  0  0  0  0  0  0  0  0
   -1.9100    3.1308   -1.3529 H   0  0  0  0  0  0  0  0  0  0  0  0
   -1.0147    3.2706    1.4636 H   0  0  0  0  0  0  0  0  0  0  0  0
   -0.5770    5.6767    1.2193 H   0  0  0  0  0  0  0  0  0  0  0  0
    1.2217    6.4797   -0.2944 H   0  0  0  0  0  0  0  0  0  0  0  0
    2.5509    4.8403   -1.6001 H   0  0  0  0  0  0  0  0  0  0  0  0
    1.9737    2.4754   -1.5497 H   0  0  0  0  0  0  0  0  0  0  0  0
  1  2  1  0  0  0  0
  1 35  1  0  0  0  0
  1 36  1  0  0  0  0
  1 37  1  0  0  0  0
  2  3  2  0  0  0  0
  2 28  1  0  0  0  0
  3  4  1  0  0  0  0
  3 20  1  0  0  0  0
  4  5  2  0  0  0  0
  4  6  1  0  0  0  0
  6  7  2  0  0  0  0
  6 10  1  0  0  0  0
  7  8  1  0  0  0  0
  7 38  1  0  0  0  0
  8  9  1  0  0  0  0
  9 10  1  0  0  0  0
  9 19  2  0  0  0  0
 10 11  2  0  0  0  0
 11 12  1  0  0  0  0
 11 39  1  0  0  0  0
 12 13  1  0  0  0  0
 12 14  2  0  0  0  0
 13 40  1  0  0  0  0
 14 15  1  0  0  0  0
 14 19  1  0  0  0  0
 15 16  2  0  0  0  0
 15 41  1  0  0  0  0
 16 17  1  0  0  0  0
 16 42  1  0  0  0  0
 17 18  2  0  0  0  0
 17 43  1  0  0  0  0
 18 19  1  0  0  0  0
 18 44  1  0  0  0  0
 20 21  1  0  0  0  0
 20 45  1  0  0  0  0
 21 22  1  0  0  0  0
 21 28  2  0  0  0  0
 22 23  1  0  0  0  0
 22 27  2  0  0  0  0
 23 24  2  0  0  0  0
 23 46  1  0  0  0  0
 24 25  1  0  0  0  0
 24 47  1  0  0  0  0
 25 26  2  0  0  0  0
 25 48  1  0  0  0  0
 26 27  1  0  0  0  0
 26 49  1  0  0  0  0
 27 50  1  0  0  0  0
 28 29  1  0  0  0  0
 29 30  1  0  0  0  0
 29 34  2  0  0  0  0
 30 31  2  0  0  0  0
 30 51  1  0  0  0  0
 31 32  1  0  0  0  0
 31 52  1  0  0  0  0
 32 33  2  0  0  0  0
 32 53  1  0  0  0  0
 33 34  1  0  0  0  0
 33 54  1  0  0  0  0
 34 55  1  0  0  0  0
M  END
$$$$
