CHEMBL231410
 OpenBabel04072215363D

 48 52  0  0  0  0  0  0  0  0999 V2000
    1.2535   -0.2438   -1.7831 N   0  0  0  0  0  0  0  0  0  0  0  0
    2.6090   -0.2583   -1.4801 C   0  0  0  0  0  0  0  0  0  0  0  0
    3.2999    0.8115   -1.9351 N   0  0  0  0  0  0  0  0  0  0  0  0
    4.6133    0.9264   -1.6844 C   0  0  0  0  0  0  0  0  0  0  0  0
    5.3429    0.0148   -0.9589 C   0  0  0  0  0  0  0  0  0  0  0  0
    4.6381   -1.1020   -0.4969 C   0  0  0  0  0  0  0  0  0  0  0  0
    5.3177   -2.3804    0.4243 S   0  0  0  0  0  0  0  0  0  0  0  0
    3.8441   -3.2156    0.4648 C   0  0  0  0  0  0  0  0  0  0  0  0
    2.8102   -2.5569   -0.1801 C   0  0  0  0  0  0  0  0  0  0  0  0
    1.4722   -3.1812   -0.1815 C   0  0  0  0  0  0  0  0  0  0  0  0
    1.0231   -3.8310    0.9703 C   0  0  0  0  0  0  0  0  0  0  0  0
   -0.2380   -4.4289    1.0172 C   0  0  0  0  0  0  0  0  0  0  0  0
   -1.1269   -4.3703   -0.0641 C   0  0  0  0  0  0  0  0  0  0  0  0
   -2.4458   -4.9064    0.0252 N   0  0  0  0  0  0  0  0  0  0  0  0
   -3.1181   -5.0518    1.2394 C   0  0  0  0  0  0  0  0  0  0  0  0
   -2.6860   -4.6278    2.3084 O   0  0  0  0  0  0  0  0  0  0  0  0
   -4.3319   -5.7349    1.1400 N   0  0  0  0  0  0  0  0  0  0  0  0
   -5.1229   -5.8928    2.3329 C   0  0  0  0  0  0  0  0  0  0  0  0
   -5.3986   -4.7439    3.0790 C   0  0  0  0  0  0  0  0  0  0  0  0
   -6.1092   -4.8071    4.2821 C   0  0  0  0  0  0  0  0  0  0  0  0
   -6.4233   -6.0435    4.8132 C   0  0  0  0  0  0  0  0  0  0  0  0
   -6.0673   -7.2153    4.1474 C   0  0  0  0  0  0  0  0  0  0  0  0
   -6.1504   -8.4128    4.8339 C   0  0  0  0  0  0  0  0  0  0  0  0
   -5.6597   -9.5595    4.2165 C   0  0  0  0  0  0  0  0  0  0  0  0
   -5.7196   -9.5866    2.8249 C   0  0  0  0  0  0  0  0  0  0  0  0
   -5.5111   -8.4145    2.1408 C   0  0  0  0  0  0  0  0  0  0  0  0
   -5.5599   -7.1703    2.8126 C   0  0  0  0  0  0  0  0  0  0  0  0
   -0.6687   -3.7655   -1.2367 C   0  0  0  0  0  0  0  0  0  0  0  0
    0.6256   -3.1847   -1.2993 C   0  0  0  0  0  0  0  0  0  0  0  0
    3.2710   -1.2839   -0.7482 C   0  0  0  0  0  0  0  0  0  0  0  0
    0.9978    0.6711   -2.1401 H   0  0  0  0  0  0  0  0  0  0  0  0
    0.6676   -0.5964   -1.0388 H   0  0  0  0  0  0  0  0  0  0  0  0
    5.0891    1.8118   -2.0967 H   0  0  0  0  0  0  0  0  0  0  0  0
    6.4009    0.1462   -0.7688 H   0  0  0  0  0  0  0  0  0  0  0  0
    3.8116   -4.1680    0.9771 H   0  0  0  0  0  0  0  0  0  0  0  0
    1.6364   -3.8882    1.8651 H   0  0  0  0  0  0  0  0  0  0  0  0
   -0.5026   -4.9409    1.9387 H   0  0  0  0  0  0  0  0  0  0  0  0
   -3.0231   -4.8618   -0.8036 H   0  0  0  0  0  0  0  0  0  0  0  0
   -4.3141   -6.5098    0.4949 H   0  0  0  0  0  0  0  0  0  0  0  0
   -5.0442   -3.7689    2.7559 H   0  0  0  0  0  0  0  0  0  0  0  0
   -6.3639   -3.8942    4.8219 H   0  0  0  0  0  0  0  0  0  0  0  0
   -6.9121   -6.0913    5.7882 H   0  0  0  0  0  0  0  0  0  0  0  0
   -6.4037   -8.4625    5.8900 H   0  0  0  0  0  0  0  0  0  0  0  0
   -4.6312   -9.8229    4.5998 H   0  0  0  0  0  0  0  0  0  0  0  0
   -5.9052  -10.5444    2.3398 H   0  0  0  0  0  0  0  0  0  0  0  0
   -5.3703   -8.4702    1.0575 H   0  0  0  0  0  0  0  0  0  0  0  0
   -1.2975   -3.7007   -2.1217 H   0  0  0  0  0  0  0  0  0  0  0  0
    0.9493   -2.7270   -2.2331 H   0  0  0  0  0  0  0  0  0  0  0  0
  1  2  1  0  0  0  0
  1 31  1  0  0  0  0
  1 32  1  0  0  0  0
  2  3  1  0  0  0  0
  2 30  2  0  0  0  0
  3  4  2  0  0  0  0
  4  5  1  0  0  0  0
  4 33  1  0  0  0  0
  5  6  2  0  0  0  0
  5 34  1  0  0  0  0
  6  7  1  0  0  0  0
  6 30  1  0  0  0  0
  7  8  1  0  0  0  0
  8  9  2  0  0  0  0
  8 35  1  0  0  0  0
  9 10  1  0  0  0  0
  9 30  1  0  0  0  0
 10 11  1  0  0  0  0
 10 29  2  0  0  0  0
 11 12  2  0  0  0  0
 11 36  1  0  0  0  0
 12 13  1  0  0  0  0
 12 37  1  0  0  0  0
 13 14  1  0  0  0  0
 13 28  2  0  0  0  0
 14 15  1  0  0  0  0
 14 38  1  0  0  0  0
 15 16  2  0  0  0  0
 15 17  1  0  0  0  0
 17 18  1  0  0  0  0
 17 39  1  0  0  0  0
 18 19  1  0  0  0  0
 18 27  2  0  0  0  0
 19 20  2  0  0  0  0
 19 40  1  0  0  0  0
 20 21  1  0  0  0  0
 20 41  1  0  0  0  0
 21 22  2  0  0  0  0
 21 42  1  0  0  0  0
 22 23  1  0  0  0  0
 22 27  1  0  0  0  0
 23 24  2  0  0  0  0
 23 43  1  0  0  0  0
 24 25  1  0  0  0  0
 24 44  1  0  0  0  0
 25 26  2  0  0  0  0
 25 45  1  0  0  0  0
 26 27  1  0  0  0  0
 26 46  1  0  0  0  0
 28 29  1  0  0  0  0
 28 47  1  0  0  0  0
 29 48  1  0  0  0  0
M  END
$$$$
