CHEMBL3930406
 OpenBabel04072215373D

 60 64  0  0  1  0  0  0  0  0999 V2000
    3.2533    0.6886   -1.1669 C   0  0  0  0  0  0  0  0  0  0  0  0
    2.5101   -0.3028   -0.4450 O   0  0  0  0  0  0  0  0  0  0  0  0
    3.2404   -1.0519    0.4360 C   0  0  0  0  0  0  0  0  0  0  0  0
    4.3283   -0.5302    1.1392 C   0  0  0  0  0  0  0  0  0  0  0  0
    5.1365   -1.3598    1.9495 C   0  0  0  0  0  0  0  0  0  0  0  0
    6.2694   -0.9451    2.6571 C   0  0  0  0  0  0  0  0  0  0  0  0
    6.6265    0.4299    2.6501 N   0  0  0  0  0  0  0  0  0  0  0  0
    7.9186    0.8855    2.9857 C   0  0  0  0  0  0  0  0  0  0  0  0
    9.0460    0.2882    2.4054 C   0  0  0  0  0  0  0  0  0  0  0  0
   10.3322    0.6540    2.7978 C   0  0  0  0  0  0  0  0  0  0  0  0
   10.5044    1.6337    3.7736 C   0  0  0  0  0  0  0  0  0  0  0  0
   12.1192    1.9955    4.2645 Cl  0  0  0  0  0  0  0  0  0  0  0  0
    9.3878    2.2705    4.3273 C   0  0  0  0  0  0  0  0  0  0  0  0
    9.5290    3.5002    5.5329 Cl  0  0  0  0  0  0  0  0  0  0  0  0
    8.0976    1.9048    3.9251 C   0  0  0  0  0  0  0  0  0  0  0  0
    7.0436   -1.8091    3.3433 N   0  0  0  0  0  0  0  0  0  0  0  0
    6.6741   -3.0899    3.3412 C   0  0  0  0  0  0  0  0  0  0  0  0
    5.6004   -3.5892    2.7300 N   0  0  0  0  0  0  0  0  0  0  0  0
    4.8524   -2.7243    2.0442 C   0  0  0  0  0  0  0  0  0  0  0  0
    3.7301   -3.2081    1.4033 C   0  0  0  0  0  0  0  0  0  0  0  0
    2.8754   -2.3858    0.6523 C   0  0  0  0  0  0  0  0  0  0  0  0
    1.6839   -2.8429    0.1200 O   0  0  0  0  0  0  0  0  0  0  0  0
    1.1946   -4.0219    0.7838 C   0  0  0  0  0  0  0  0  0  0  0  0
   -0.2454   -4.3444    0.5741 C   0  0  0  0  0  0  0  0  0  0  0  0
   -1.1722   -3.7519   -0.2549 C   0  0  0  0  0  0  0  0  0  0  0  0
   -2.7001   -4.5118   -0.0650 S   0  0  0  0  0  0  0  0  0  0  0  0
   -2.0238   -5.5690    1.1083 C   0  0  0  0  0  0  0  0  0  0  0  0
   -2.8603   -6.5910    1.8278 C   0  0  3  0  0  0  0  0  0  0  0  0
   -2.8275   -6.3303    3.3419 C   0  0  0  0  0  0  0  0  0  0  0  0
   -3.5902   -7.4215    4.0845 C   0  0  0  0  0  0  0  0  0  0  0  0
   -3.0721   -8.8125    3.7145 C   0  0  0  0  0  0  0  0  0  0  0  0
   -3.1210   -9.0372    2.2617 N   0  0  0  0  0  0  0  0  0  0  0  0
   -2.6190  -10.3747    1.9399 C   0  0  0  0  0  0  0  0  0  0  0  0
   -2.3403   -8.0132    1.5380 C   0  0  0  0  0  0  0  0  0  0  0  0
   -0.7417   -5.3975    1.3351 N   0  0  0  0  0  0  0  0  0  0  0  0
    2.9224    0.6809   -2.2096 H   0  0  0  0  0  0  0  0  0  0  0  0
    4.3379    0.5154   -1.1820 H   0  0  0  0  0  0  0  0  0  0  0  0
    3.0454    1.6774   -0.7446 H   0  0  0  0  0  0  0  0  0  0  0  0
    4.5750    0.5245    1.0539 H   0  0  0  0  0  0  0  0  0  0  0  0
    5.8828    0.9684    3.0840 H   0  0  0  0  0  0  0  0  0  0  0  0
    8.9198   -0.4936    1.6586 H   0  0  0  0  0  0  0  0  0  0  0  0
   11.1859    0.1517    2.3520 H   0  0  0  0  0  0  0  0  0  0  0  0
    7.2365    2.3881    4.3779 H   0  0  0  0  0  0  0  0  0  0  0  0
    7.3022   -3.7872    3.8830 H   0  0  0  0  0  0  0  0  0  0  0  0
    3.5424   -4.2719    1.5167 H   0  0  0  0  0  0  0  0  0  0  0  0
    1.3116   -3.9110    1.8719 H   0  0  0  0  0  0  0  0  0  0  0  0
    1.7723   -4.8861    0.4345 H   0  0  0  0  0  0  0  0  0  0  0  0
   -1.0294   -2.9239   -0.9320 H   0  0  0  0  0  0  0  0  0  0  0  0
   -3.9023   -6.5258    1.4871 H   0  0  0  0  0  0  0  0  0  0  0  0
   -3.2565   -5.3480    3.5729 H   0  0  0  0  0  0  0  0  0  0  0  0
   -1.7904   -6.3112    3.7049 H   0  0  0  0  0  0  0  0  0  0  0  0
   -4.6583   -7.3473    3.8458 H   0  0  0  0  0  0  0  0  0  0  0  0
   -3.4921   -7.2676    5.1653 H   0  0  0  0  0  0  0  0  0  0  0  0
   -3.6979   -9.5557    4.2235 H   0  0  0  0  0  0  0  0  0  0  0  0
   -2.0487   -8.9332    4.0940 H   0  0  0  0  0  0  0  0  0  0  0  0
   -3.2304  -11.1422    2.4270 H   0  0  0  0  0  0  0  0  0  0  0  0
   -1.5776  -10.5127    2.2538 H   0  0  0  0  0  0  0  0  0  0  0  0
   -2.6805  -10.5605    0.8620 H   0  0  0  0  0  0  0  0  0  0  0  0
   -2.4117   -8.1992    0.4583 H   0  0  0  0  0  0  0  0  0  0  0  0
   -1.2758   -8.0925    1.8026 H   0  0  0  0  0  0  0  0  0  0  0  0
  1  2  1  0  0  0  0
  1 36  1  0  0  0  0
  1 37  1  0  0  0  0
  1 38  1  0  0  0  0
  2  3  1  0  0  0  0
  3  4  1  0  0  0  0
  3 21  2  0  0  0  0
  4  5  2  0  0  0  0
  4 39  1  0  0  0  0
  5  6  1  0  0  0  0
  5 19  1  0  0  0  0
  6  7  1  0  0  0  0
  6 16  2  0  0  0  0
  7  8  1  0  0  0  0
  7 40  1  0  0  0  0
  8  9  1  0  0  0  0
  8 15  2  0  0  0  0
  9 10  2  0  0  0  0
  9 41  1  0  0  0  0
 10 11  1  0  0  0  0
 10 42  1  0  0  0  0
 11 12  1  0  0  0  0
 11 13  2  0  0  0  0
 13 14  1  0  0  0  0
 13 15  1  0  0  0  0
 15 43  1  0  0  0  0
 16 17  1  0  0  0  0
 17 18  2  0  0  0  0
 17 44  1  0  0  0  0
 18 19  1  0  0  0  0
 19 20  2  0  0  0  0
 20 21  1  0  0  0  0
 20 45  1  0  0  0  0
 21 22  1  0  0  0  0
 22 23  1  0  0  0  0
 23 24  1  0  0  0  0
 23 46  1  0  0  0  0
 23 47  1  0  0  0  0
 24 25  2  0  0  0  0
 24 35  1  0  0  0  0
 25 26  1  0  0  0  0
 25 48  1  0  0  0  0
 26 27  1  0  0  0  0
 27 28  1  0  0  0  0
 27 35  2  0  0  0  0
 28 29  1  0  0  0  0
 28 34  1  0  0  0  0
 28 49  1  0  0  0  0
 29 30  1  0  0  0  0
 29 50  1  0  0  0  0
 29 51  1  0  0  0  0
 30 31  1  0  0  0  0
 30 52  1  0  0  0  0
 30 53  1  0  0  0  0
 31 32  1  0  0  0  0
 31 54  1  0  0  0  0
 31 55  1  0  0  0  0
 32 33  1  0  0  0  0
 32 34  1  0  0  0  0
 33 56  1  0  0  0  0
 33 57  1  0  0  0  0
 33 58  1  0  0  0  0
 34 59  1  0  0  0  0
 34 60  1  0  0  0  0
M  END
$$$$
