CHEMBL1940181
 OpenBabel04072215363D

 67 72  0  0  0  0  0  0  0  0999 V2000
    0.9645   -0.2723    0.0089 C   0  0  0  0  0  0  0  0  0  0  0  0
    2.4622   -0.1273    0.0277 C   0  0  0  0  0  0  0  0  0  0  0  0
    3.1830   -1.3313   -0.0887 C   0  0  0  0  0  0  0  0  0  0  0  0
    4.5809   -1.3621   -0.0896 C   0  0  0  0  0  0  0  0  0  0  0  0
    5.3159   -0.1669   -0.0259 C   0  0  0  0  0  0  0  0  0  0  0  0
    4.5818    1.0261    0.0963 C   0  0  0  0  0  0  0  0  0  0  0  0
    3.1699    1.0826    0.1795 C   0  0  0  0  0  0  0  0  0  0  0  0
    2.6328    2.3601    0.3977 N   0  0  0  0  0  0  0  0  0  0  0  0
    1.2813    2.6651   -0.0545 C   0  0  0  0  0  0  0  0  0  0  0  0
    1.0972    4.1731   -0.1304 C   0  0  0  0  0  0  0  0  0  0  0  0
    1.3461    4.8751    1.2190 C   0  0  0  0  0  0  0  0  0  0  0  0
    0.3464    4.6494    2.2944 N   0  0  0  0  0  0  0  0  0  0  0  0
   -1.0664    4.5208    1.8669 C   0  0  0  0  0  0  0  0  0  0  0  0
   -1.7277    5.8413    1.4426 C   0  0  0  0  0  0  0  0  0  0  0  0
   -1.6798    6.7983    2.5061 O   0  0  0  0  0  0  0  0  0  0  0  0
   -0.3240    7.0388    2.8957 C   0  0  0  0  0  0  0  0  0  0  0  0
    0.3877    5.7353    3.3164 C   0  0  0  0  0  0  0  0  0  0  0  0
    2.7546    4.4468    1.7021 C   0  0  0  0  0  0  0  0  0  0  0  0
    2.9516    2.9270    1.7263 C   0  0  0  0  0  0  0  0  0  0  0  0
    6.8561   -0.1248   -0.0773 C   0  0  0  0  0  0  0  0  0  0  0  0
    7.3023    0.5877   -1.3722 C   0  0  0  0  0  0  0  0  0  0  0  0
    7.3957    0.6356    1.1552 C   0  0  0  0  0  0  0  0  0  0  0  0
    7.4083   -1.5299   -0.0739 C   0  0  0  0  0  0  0  0  0  0  0  0
    8.7362   -1.8729   -0.0585 N   0  0  0  0  0  0  0  0  0  0  0  0
    8.8661   -3.2451   -0.0536 C   0  0  0  0  0  0  0  0  0  0  0  0
   10.0145   -4.0450   -0.0373 C   0  0  0  0  0  0  0  0  0  0  0  0
    9.8320   -5.4365   -0.0333 C   0  0  0  0  0  0  0  0  0  0  0  0
   10.9807   -6.2957   -0.0240 C   0  0  0  0  0  0  0  0  0  0  0  0
   11.9086   -6.9850   -0.0190 N   0  0  0  0  0  0  0  0  0  0  0  0
    8.5547   -6.0009   -0.0389 C   0  0  0  0  0  0  0  0  0  0  0  0
    7.4225   -5.1843   -0.0562 C   0  0  0  0  0  0  0  0  0  0  0  0
    7.5823   -3.7870   -0.0702 C   0  0  0  0  0  0  0  0  0  0  0  0
    6.6733   -2.6976   -0.0979 C   0  0  0  0  0  0  0  0  0  0  0  0
    5.2298   -2.7024   -0.1380 C   0  0  0  0  0  0  0  0  0  0  0  0
    4.5660   -3.7318   -0.1925 O   0  0  0  0  0  0  0  0  0  0  0  0
    0.6593   -1.3164   -0.1290 H   0  0  0  0  0  0  0  0  0  0  0  0
    0.5300    0.2647   -0.8378 H   0  0  0  0  0  0  0  0  0  0  0  0
    0.5296    0.0610    0.9541 H   0  0  0  0  0  0  0  0  0  0  0  0
    2.6408   -2.2743   -0.1650 H   0  0  0  0  0  0  0  0  0  0  0  0
    5.1169    1.9750    0.1216 H   0  0  0  0  0  0  0  0  0  0  0  0
    0.5362    2.2339    0.6199 H   0  0  0  0  0  0  0  0  0  0  0  0
    1.1298    2.2762   -1.0666 H   0  0  0  0  0  0  0  0  0  0  0  0
    0.1079    4.4072   -0.5347 H   0  0  0  0  0  0  0  0  0  0  0  0
    1.8143    4.5714   -0.8618 H   0  0  0  0  0  0  0  0  0  0  0  0
    1.3809    5.9471    0.9910 H   0  0  0  0  0  0  0  0  0  0  0  0
   -1.6231    4.1302    2.7301 H   0  0  0  0  0  0  0  0  0  0  0  0
   -1.1921    3.7629    1.0888 H   0  0  0  0  0  0  0  0  0  0  0  0
   -2.7832    5.6665    1.2088 H   0  0  0  0  0  0  0  0  0  0  0  0
   -1.2562    6.2671    0.5499 H   0  0  0  0  0  0  0  0  0  0  0  0
   -0.3450    7.7348    3.7406 H   0  0  0  0  0  0  0  0  0  0  0  0
    0.1968    7.5416    2.0731 H   0  0  0  0  0  0  0  0  0  0  0  0
   -0.1085    5.3496    4.2162 H   0  0  0  0  0  0  0  0  0  0  0  0
    1.4140    5.9671    3.6173 H   0  0  0  0  0  0  0  0  0  0  0  0
    2.9879    4.8522    2.6925 H   0  0  0  0  0  0  0  0  0  0  0  0
    3.4984    4.8836    1.0218 H   0  0  0  0  0  0  0  0  0  0  0  0
    2.3286    2.4603    2.4992 H   0  0  0  0  0  0  0  0  0  0  0  0
    3.9970    2.7414    2.0069 H   0  0  0  0  0  0  0  0  0  0  0  0
    6.9187    1.6125   -1.4324 H   0  0  0  0  0  0  0  0  0  0  0  0
    6.9476    0.0534   -2.2625 H   0  0  0  0  0  0  0  0  0  0  0  0
    8.3948    0.6478   -1.4412 H   0  0  0  0  0  0  0  0  0  0  0  0
    7.0466    1.6736    1.1896 H   0  0  0  0  0  0  0  0  0  0  0  0
    8.4908    0.6738    1.1610 H   0  0  0  0  0  0  0  0  0  0  0  0
    7.0768    0.1538    2.0880 H   0  0  0  0  0  0  0  0  0  0  0  0
    9.5125   -1.2254   -0.0487 H   0  0  0  0  0  0  0  0  0  0  0  0
   11.0076   -3.6050   -0.0292 H   0  0  0  0  0  0  0  0  0  0  0  0
    8.4221   -7.0825   -0.0317 H   0  0  0  0  0  0  0  0  0  0  0  0
    6.4264   -5.6222   -0.0608 H   0  0  0  0  0  0  0  0  0  0  0  0
  1  2  1  0  0  0  0
  1 36  1  0  0  0  0
  1 37  1  0  0  0  0
  1 38  1  0  0  0  0
  2  3  1  0  0  0  0
  2  7  2  0  0  0  0
  3  4  2  0  0  0  0
  3 39  1  0  0  0  0
  4  5  1  0  0  0  0
  4 34  1  0  0  0  0
  5  6  2  0  0  0  0
  5 20  1  0  0  0  0
  6  7  1  0  0  0  0
  6 40  1  0  0  0  0
  7  8  1  0  0  0  0
  8  9  1  0  0  0  0
  8 19  1  0  0  0  0
  9 10  1  0  0  0  0
  9 41  1  0  0  0  0
  9 42  1  0  0  0  0
 10 11  1  0  0  0  0
 10 43  1  0  0  0  0
 10 44  1  0  0  0  0
 11 12  1  0  0  0  0
 11 18  1  0  0  0  0
 11 45  1  0  0  0  0
 12 13  1  0  0  0  0
 12 17  1  0  0  0  0
 13 14  1  0  0  0  0
 13 46  1  0  0  0  0
 13 47  1  0  0  0  0
 14 15  1  0  0  0  0
 14 48  1  0  0  0  0
 14 49  1  0  0  0  0
 15 16  1  0  0  0  0
 16 17  1  0  0  0  0
 16 50  1  0  0  0  0
 16 51  1  0  0  0  0
 17 52  1  0  0  0  0
 17 53  1  0  0  0  0
 18 19  1  0  0  0  0
 18 54  1  0  0  0  0
 18 55  1  0  0  0  0
 19 56  1  0  0  0  0
 19 57  1  0  0  0  0
 20 21  1  0  0  0  0
 20 22  1  0  0  0  0
 20 23  1  0  0  0  0
 21 58  1  0  0  0  0
 21 59  1  0  0  0  0
 21 60  1  0  0  0  0
 22 61  1  0  0  0  0
 22 62  1  0  0  0  0
 22 63  1  0  0  0  0
 23 24  1  0  0  0  0
 23 33  2  0  0  0  0
 24 25  1  0  0  0  0
 24 64  1  0  0  0  0
 25 26  1  0  0  0  0
 25 32  2  0  0  0  0
 26 27  2  0  0  0  0
 26 65  1  0  0  0  0
 27 28  1  0  0  0  0
 27 30  1  0  0  0  0
 28 29  3  0  0  0  0
 30 31  2  0  0  0  0
 30 66  1  0  0  0  0
 31 32  1  0  0  0  0
 31 67  1  0  0  0  0
 32 33  1  0  0  0  0
 33 34  1  0  0  0  0
 34 35  2  0  0  0  0
M  END
$$$$
