CHEMBL492399
 OpenBabel04072215383D

 38 40  0  0  0  0  0  0  0  0999 V2000
    2.7261   -0.1844   -0.8008 C   0  0  0  0  0  0  0  0  0  0  0  0
    2.1302   -0.2638    0.4898 O   0  0  0  0  0  0  0  0  0  0  0  0
    2.9284    0.0006    1.5679 C   0  0  0  0  0  0  0  0  0  0  0  0
    4.2929    0.2548    1.5366 C   0  0  0  0  0  0  0  0  0  0  0  0
    4.9930    0.4897    2.7335 C   0  0  0  0  0  0  0  0  0  0  0  0
    4.3586    0.5038    3.9940 C   0  0  0  0  0  0  0  0  0  0  0  0
    5.0711    0.7599    5.1929 N   0  0  0  0  0  0  0  0  0  0  0  0
    6.1828    1.7241    5.0647 C   0  0  0  0  0  0  0  0  0  0  0  0
    4.9246    0.2764    6.5320 C   0  0  0  0  0  0  0  0  0  0  0  0
    5.3396    1.1089    7.5301 N   0  0  0  0  0  0  0  0  0  0  0  0
    5.2928    0.6840    8.7984 C   0  0  0  0  0  0  0  0  0  0  0  0
    5.7028    1.6080    9.9026 C   0  0  0  0  0  0  0  0  0  0  0  0
    4.8817   -0.5250    9.1701 N   0  0  0  0  0  0  0  0  0  0  0  0
    4.4858   -1.3556    8.2188 C   0  0  0  0  0  0  0  0  0  0  0  0
    4.1193   -2.6166    8.6626 C   0  0  0  0  0  0  0  0  0  0  0  0
    3.6734   -3.6005    7.7905 C   0  0  0  0  0  0  0  0  0  0  0  0
    3.6018   -3.3166    6.4383 C   0  0  0  0  0  0  0  0  0  0  0  0
    4.0104   -2.0629    5.9708 C   0  0  0  0  0  0  0  0  0  0  0  0
    4.4534   -1.0334    6.8484 C   0  0  0  0  0  0  0  0  0  0  0  0
    2.9767    0.2708    3.9925 C   0  0  0  0  0  0  0  0  0  0  0  0
    2.2785    0.0027    2.8028 C   0  0  0  0  0  0  0  0  0  0  0  0
    1.9468   -0.3894   -1.5421 H   0  0  0  0  0  0  0  0  0  0  0  0
    3.5078   -0.9418   -0.9255 H   0  0  0  0  0  0  0  0  0  0  0  0
    3.1145    0.8199   -0.9978 H   0  0  0  0  0  0  0  0  0  0  0  0
    4.8505    0.2718    0.6059 H   0  0  0  0  0  0  0  0  0  0  0  0
    6.0659    0.6499    2.6536 H   0  0  0  0  0  0  0  0  0  0  0  0
    6.1481    2.3049    4.1343 H   0  0  0  0  0  0  0  0  0  0  0  0
    7.1409    1.1912    5.0895 H   0  0  0  0  0  0  0  0  0  0  0  0
    6.1831    2.4879    5.8503 H   0  0  0  0  0  0  0  0  0  0  0  0
    5.7583    1.0649   10.8534 H   0  0  0  0  0  0  0  0  0  0  0  0
    4.9687    2.4103   10.0160 H   0  0  0  0  0  0  0  0  0  0  0  0
    6.6882    2.0376    9.7041 H   0  0  0  0  0  0  0  0  0  0  0  0
    4.1963   -2.8406    9.7260 H   0  0  0  0  0  0  0  0  0  0  0  0
    3.3946   -4.5776    8.1730 H   0  0  0  0  0  0  0  0  0  0  0  0
    3.2445   -4.0709    5.7419 H   0  0  0  0  0  0  0  0  0  0  0  0
    3.9813   -1.9080    4.8982 H   0  0  0  0  0  0  0  0  0  0  0  0
    2.4193    0.2935    4.9259 H   0  0  0  0  0  0  0  0  0  0  0  0
    1.2107   -0.1999    2.8435 H   0  0  0  0  0  0  0  0  0  0  0  0
  1  2  1  0  0  0  0
  1 22  1  0  0  0  0
  1 23  1  0  0  0  0
  1 24  1  0  0  0  0
  2  3  1  0  0  0  0
  3  4  1  0  0  0  0
  3 21  2  0  0  0  0
  4  5  2  0  0  0  0
  4 25  1  0  0  0  0
  5  6  1  0  0  0  0
  5 26  1  0  0  0  0
  6  7  1  0  0  0  0
  6 20  2  0  0  0  0
  7  8  1  0  0  0  0
  7  9  1  0  0  0  0
  8 27  1  0  0  0  0
  8 28  1  0  0  0  0
  8 29  1  0  0  0  0
  9 10  1  0  0  0  0
  9 19  2  0  0  0  0
 10 11  2  0  0  0  0
 11 12  1  0  0  0  0
 11 13  1  0  0  0  0
 12 30  1  0  0  0  0
 12 31  1  0  0  0  0
 12 32  1  0  0  0  0
 13 14  2  0  0  0  0
 14 15  1  0  0  0  0
 14 19  1  0  0  0  0
 15 16  2  0  0  0  0
 15 33  1  0  0  0  0
 16 17  1  0  0  0  0
 16 34  1  0  0  0  0
 17 18  2  0  0  0  0
 17 35  1  0  0  0  0
 18 19  1  0  0  0  0
 18 36  1  0  0  0  0
 20 21  1  0  0  0  0
 20 37  1  0  0  0  0
 21 38  1  0  0  0  0
M  END
$$$$
