CHEMBL3648098
 OpenBabel04072215373D

 62 63  0  0  1  0  0  0  0  0999 V2000
    0.6612   -1.3606    1.7153 C   0  0  0  0  0  0  0  0  0  0  0  0
    2.1324   -1.5958    2.1340 C   0  0  2  0  0  0  0  0  0  0  0  0
    2.1108   -1.9948    3.6261 C   0  0  0  0  0  0  0  0  0  0  0  0
    1.5866   -0.9123    4.4073 O   0  0  0  0  0  0  0  0  0  0  0  0
    2.9523   -0.3593    1.9615 N   0  0  0  0  0  0  0  0  0  0  0  0
    4.3302   -0.4783    2.2978 C   0  0  0  0  0  0  0  0  0  0  0  0
    4.9413   -1.6733    2.1270 N   0  0  0  0  0  0  0  0  0  0  0  0
    6.2376   -1.7886    2.4942 C   0  0  0  0  0  0  0  0  0  0  0  0
    6.8610   -3.0334    2.5477 N   0  0  0  0  0  0  0  0  0  0  0  0
    8.1717   -3.3075    2.9851 C   0  0  0  0  0  0  0  0  0  0  0  0
    8.8236   -2.5090    3.9482 C   0  0  0  0  0  0  0  0  0  0  0  0
   10.1817   -2.6419    4.2654 C   0  0  0  0  0  0  0  0  0  0  0  0
   10.9237   -3.6065    3.5999 C   0  0  0  0  0  0  0  0  0  0  0  0
   12.6436   -3.7916    3.8981 S   0  0  3  0  0  0  0  0  0  0  0  0
   12.9141   -4.0945    5.6183 C   0  0  0  0  0  0  0  0  0  0  0  0
   13.1442   -4.8842    3.0837 O   0  0  0  0  0  0  0  0  0  0  0  0
   13.4162   -2.3588    3.5559 N   0  0  0  0  0  0  0  0  0  0  0  0
   15.0919   -2.1794    3.7861 S   0  0  0  0  0  0  0  0  0  0  0  0
   15.4879   -0.8939    3.2767 O   0  0  0  0  0  0  0  0  0  0  0  0
   15.4320   -2.5541    5.1509 O   0  0  0  0  0  0  0  0  0  0  0  0
   15.7567   -3.4343    2.6809 C   0  0  0  0  0  0  0  0  0  0  0  0
   17.2838   -3.4776    2.7495 C   0  0  0  0  0  0  0  0  0  0  0  0
   18.1154   -4.7642    1.6301 Si  0  0  0  0  0  0  0  0  0  0  0  0
   19.9751   -4.6498    1.8639 C   0  0  0  0  0  0  0  0  0  0  0  0
   17.5156   -6.4748    2.1035 C   0  0  0  0  0  0  0  0  0  0  0  0
   17.6945   -4.4271   -0.1643 C   0  0  0  0  0  0  0  0  0  0  0  0
   10.2966   -4.4430    2.6675 C   0  0  0  0  0  0  0  0  0  0  0  0
    8.9384   -4.2936    2.3631 C   0  0  0  0  0  0  0  0  0  0  0  0
    6.9776   -0.7197    2.8667 N   0  0  0  0  0  0  0  0  0  0  0  0
    6.3722    0.4439    3.0223 C   0  0  0  0  0  0  0  0  0  0  0  0
    5.0324    0.6307    2.7988 C   0  0  0  0  0  0  0  0  0  0  0  0
    4.2696    2.2339    3.4413 Br  0  0  0  0  0  0  0  0  0  0  0  0
    0.5520   -1.2904    0.6321 H   0  0  0  0  0  0  0  0  0  0  0  0
    0.2490   -0.4526    2.1617 H   0  0  0  0  0  0  0  0  0  0  0  0
    0.0315   -2.1942    2.0429 H   0  0  0  0  0  0  0  0  0  0  0  0
    2.5238   -2.4159    1.5201 H   0  0  0  0  0  0  0  0  0  0  0  0
    1.4859   -2.8794    3.7838 H   0  0  0  0  0  0  0  0  0  0  0  0
    3.1157   -2.2226    3.9993 H   0  0  0  0  0  0  0  0  0  0  0  0
    0.9817   -1.2994    5.0650 H   0  0  0  0  0  0  0  0  0  0  0  0
    2.5637    0.3658    2.5669 H   0  0  0  0  0  0  0  0  0  0  0  0
    6.3519   -3.7362    2.0271 H   0  0  0  0  0  0  0  0  0  0  0  0
    8.2768   -1.7169    4.4585 H   0  0  0  0  0  0  0  0  0  0  0  0
   10.6237   -1.9660    4.9874 H   0  0  0  0  0  0  0  0  0  0  0  0
   12.3928   -5.0091    5.8990 H   0  0  0  0  0  0  0  0  0  0  0  0
   12.5517   -3.2392    6.1931 H   0  0  0  0  0  0  0  0  0  0  0  0
   13.9791   -4.2491    5.7902 H   0  0  0  0  0  0  0  0  0  0  0  0
   15.4004   -3.1906    1.6727 H   0  0  0  0  0  0  0  0  0  0  0  0
   15.3628   -4.4017    2.9887 H   0  0  0  0  0  0  0  0  0  0  0  0
   17.5924   -3.6825    3.7805 H   0  0  0  0  0  0  0  0  0  0  0  0
   17.6862   -2.4914    2.4914 H   0  0  0  0  0  0  0  0  0  0  0  0
   20.2473   -4.8335    2.9073 H   0  0  0  0  0  0  0  0  0  0  0  0
   20.3367   -3.6553    1.5864 H   0  0  0  0  0  0  0  0  0  0  0  0
   20.4895   -5.3865    1.2402 H   0  0  0  0  0  0  0  0  0  0  0  0
   17.7453   -6.6915    3.1509 H   0  0  0  0  0  0  0  0  0  0  0  0
   17.9926   -7.2386    1.4822 H   0  0  0  0  0  0  0  0  0  0  0  0
   16.4326   -6.5529    1.9677 H   0  0  0  0  0  0  0  0  0  0  0  0
   18.0349   -3.4318   -0.4644 H   0  0  0  0  0  0  0  0  0  0  0  0
   16.6143   -4.4848   -0.3277 H   0  0  0  0  0  0  0  0  0  0  0  0
   18.1764   -5.1627   -0.8157 H   0  0  0  0  0  0  0  0  0  0  0  0
   10.8774   -5.1998    2.1381 H   0  0  0  0  0  0  0  0  0  0  0  0
    8.5050   -4.9217    1.5877 H   0  0  0  0  0  0  0  0  0  0  0  0
    7.0191    1.2249    3.4176 H   0  0  0  0  0  0  0  0  0  0  0  0
  1 33  1  0  0  0  0
  1 34  1  0  0  0  0
  1 35  1  0  0  0  0
  2  5  1  0  0  0  0
  2  3  1  0  0  0  0
  2  1  1  0  0  0  0
  2 36  1  6  0  0  0
  3  4  1  0  0  0  0
  3 37  1  0  0  0  0
  3 38  1  0  0  0  0
  4 39  1  0  0  0  0
  5  6  1  0  0  0  0
  5 40  1  0  0  0  0
  6  7  1  0  0  0  0
  6 31  2  0  0  0  0
  7  8  2  0  0  0  0
  8  9  1  0  0  0  0
  8 29  1  0  0  0  0
  9 10  1  0  0  0  0
  9 41  1  0  0  0  0
 10 11  1  0  0  0  0
 10 28  2  0  0  0  0
 11 12  2  0  0  0  0
 11 42  1  0  0  0  0
 12 13  1  0  0  0  0
 12 43  1  0  0  0  0
 13 14  1  0  0  0  0
 13 27  2  0  0  0  0
 14 15  1  0  0  0  0
 14 16  2  0  0  0  0
 14 17  2  0  0  0  0
 15 44  1  0  0  0  0
 15 45  1  0  0  0  0
 15 46  1  0  0  0  0
 17 18  1  0  0  0  0
 18 19  2  0  0  0  0
 18 20  2  0  0  0  0
 18 21  1  0  0  0  0
 21 22  1  0  0  0  0
 21 47  1  0  0  0  0
 21 48  1  0  0  0  0
 22 23  1  0  0  0  0
 22 49  1  0  0  0  0
 22 50  1  0  0  0  0
 23 24  1  0  0  0  0
 23 25  1  0  0  0  0
 23 26  1  0  0  0  0
 24 51  1  0  0  0  0
 24 52  1  0  0  0  0
 24 53  1  0  0  0  0
 25 54  1  0  0  0  0
 25 55  1  0  0  0  0
 25 56  1  0  0  0  0
 26 57  1  0  0  0  0
 26 58  1  0  0  0  0
 26 59  1  0  0  0  0
 27 28  1  0  0  0  0
 27 60  1  0  0  0  0
 28 61  1  0  0  0  0
 29 30  2  0  0  0  0
 30 31  1  0  0  0  0
 30 62  1  0  0  0  0
 31 32  1  0  0  0  0
M  END
$$$$
