CHEMBL69129
 OpenBabel04072215383D

 51 55  0  0  1  0  0  0  0  0999 V2000
    1.1226    0.2938   -0.0602 N   0  0  0  0  0  0  0  0  0  0  0  0
    2.5008    0.1090   -0.0854 C   0  0  0  0  0  0  0  0  0  0  0  0
    3.2329    1.2335   -0.0867 N   0  0  0  0  0  0  0  0  0  0  0  0
    4.5724    1.1256   -0.0871 C   0  0  0  0  0  0  0  0  0  0  0  0
    5.3107    0.0059   -0.0846 N   0  0  0  0  0  0  0  0  0  0  0  0
    4.5485   -1.0991   -0.0970 C   0  0  0  0  0  0  0  0  0  0  0  0
    3.1532   -1.1429   -0.1036 C   0  0  0  0  0  0  0  0  0  0  0  0
    2.7922   -2.5346   -0.1377 C   0  0  0  0  0  0  0  0  0  0  0  0
    1.4919   -3.1919   -0.2039 C   0  0  0  0  0  0  0  0  0  0  0  0
    0.4334   -2.5601   -0.8551 C   0  0  0  0  0  0  0  0  0  0  0  0
   -0.8380   -3.1251   -0.8592 C   0  0  0  0  0  0  0  0  0  0  0  0
   -1.0138   -4.4289   -0.4029 C   0  0  0  0  0  0  0  0  0  0  0  0
   -2.1854   -5.1408   -0.5710 O   0  0  0  0  0  0  0  0  0  0  0  0
   -2.9574   -4.8773   -1.6797 C   0  0  0  0  0  0  0  0  0  0  0  0
   -2.4397   -4.4907   -2.9231 C   0  0  0  0  0  0  0  0  0  0  0  0
   -3.2938   -4.1114   -3.9546 C   0  0  0  0  0  0  0  0  0  0  0  0
   -4.6732   -4.1993   -3.7722 C   0  0  0  0  0  0  0  0  0  0  0  0
   -5.1897   -4.6816   -2.5706 C   0  0  0  0  0  0  0  0  0  0  0  0
   -4.3322   -5.0122   -1.5229 C   0  0  0  0  0  0  0  0  0  0  0  0
    0.0316   -5.0858    0.2324 C   0  0  0  0  0  0  0  0  0  0  0  0
    1.2772   -4.4589    0.3564 C   0  0  0  0  0  0  0  0  0  0  0  0
    3.9693   -3.2629   -0.1356 C   0  0  0  0  0  0  0  0  0  0  0  0
    5.0210   -2.3847   -0.1015 N   0  0  0  0  0  0  0  0  0  0  0  0
    6.4125   -2.8020   -0.0687 C   0  0  3  0  0  0  0  0  0  0  0  0
    7.1909   -2.2991    1.1587 C   0  0  0  0  0  0  0  0  0  0  0  0
    8.3673   -1.5058    0.5963 C   0  0  0  0  0  0  0  0  0  0  0  0
    8.6174   -2.1218   -0.7724 C   0  0  3  0  0  0  0  0  0  0  0  0
    9.3575   -3.3327   -0.6651 O   0  0  0  0  0  0  0  0  0  0  0  0
    7.2206   -2.3949   -1.3099 C   0  0  0  0  0  0  0  0  0  0  0  0
    0.8880    1.2594    0.1570 H   0  0  0  0  0  0  0  0  0  0  0  0
    0.6122   -0.4073    0.4622 H   0  0  0  0  0  0  0  0  0  0  0  0
    5.1227    2.0601   -0.0951 H   0  0  0  0  0  0  0  0  0  0  0  0
    0.5700   -1.6253   -1.3872 H   0  0  0  0  0  0  0  0  0  0  0  0
   -1.6518   -2.5599   -1.3047 H   0  0  0  0  0  0  0  0  0  0  0  0
   -1.3679   -4.4312   -3.0907 H   0  0  0  0  0  0  0  0  0  0  0  0
   -2.8853   -3.7293   -4.8843 H   0  0  0  0  0  0  0  0  0  0  0  0
   -5.3446   -3.9035   -4.5753 H   0  0  0  0  0  0  0  0  0  0  0  0
   -6.2629   -4.7759   -2.4429 H   0  0  0  0  0  0  0  0  0  0  0  0
   -4.7414   -5.3666   -0.5756 H   0  0  0  0  0  0  0  0  0  0  0  0
   -0.1088   -6.0913    0.6209 H   0  0  0  0  0  0  0  0  0  0  0  0
    2.0736   -4.9861    0.8696 H   0  0  0  0  0  0  0  0  0  0  0  0
    4.1454   -4.3301   -0.1710 H   0  0  0  0  0  0  0  0  0  0  0  0
    6.4019   -3.9000   -0.0174 H   0  0  0  0  0  0  0  0  0  0  0  0
    7.5678   -3.1599    1.7246 H   0  0  0  0  0  0  0  0  0  0  0  0
    6.5958   -1.6994    1.8561 H   0  0  0  0  0  0  0  0  0  0  0  0
    9.2376   -1.5658    1.2581 H   0  0  0  0  0  0  0  0  0  0  0  0
    8.0805   -0.4524    0.4877 H   0  0  0  0  0  0  0  0  0  0  0  0
    9.1808   -1.4507   -1.4271 H   0  0  0  0  0  0  0  0  0  0  0  0
    8.9540   -3.9056    0.0096 H   0  0  0  0  0  0  0  0  0  0  0  0
    7.2103   -3.1932   -2.0600 H   0  0  0  0  0  0  0  0  0  0  0  0
    6.8176   -1.4901   -1.7768 H   0  0  0  0  0  0  0  0  0  0  0  0
  1  2  1  0  0  0  0
  1 30  1  0  0  0  0
  1 31  1  0  0  0  0
  2  3  1  0  0  0  0
  2  7  2  0  0  0  0
  3  4  2  0  0  0  0
  4  5  1  0  0  0  0
  4 32  1  0  0  0  0
  5  6  2  0  0  0  0
  6  7  1  0  0  0  0
  6 23  1  0  0  0  0
  7  8  1  0  0  0  0
  8  9  1  0  0  0  0
  8 22  2  0  0  0  0
  9 10  1  0  0  0  0
  9 21  2  0  0  0  0
 10 11  2  0  0  0  0
 10 33  1  0  0  0  0
 11 12  1  0  0  0  0
 11 34  1  0  0  0  0
 12 13  1  0  0  0  0
 12 20  2  0  0  0  0
 13 14  1  0  0  0  0
 14 15  1  0  0  0  0
 14 19  2  0  0  0  0
 15 16  2  0  0  0  0
 15 35  1  0  0  0  0
 16 17  1  0  0  0  0
 16 36  1  0  0  0  0
 17 18  2  0  0  0  0
 17 37  1  0  0  0  0
 18 19  1  0  0  0  0
 18 38  1  0  0  0  0
 19 39  1  0  0  0  0
 20 21  1  0  0  0  0
 20 40  1  0  0  0  0
 21 41  1  0  0  0  0
 22 23  1  0  0  0  0
 22 42  1  0  0  0  0
 23 24  1  0  0  0  0
 24 25  1  0  0  0  0
 24 29  1  0  0  0  0
 24 43  1  0  0  0  0
 25 26  1  0  0  0  0
 25 44  1  0  0  0  0
 25 45  1  0  0  0  0
 26 27  1  0  0  0  0
 26 46  1  0  0  0  0
 26 47  1  0  0  0  0
 27 28  1  0  0  0  0
 27 29  1  0  0  0  0
 27 48  1  0  0  0  0
 28 49  1  0  0  0  0
 29 50  1  0  0  0  0
 29 51  1  0  0  0  0
M  END
$$$$
