CHEMBL3690513
 OpenBabel04072215373D

 54 57  0  0  0  0  0  0  0  0999 V2000
    0.8053   -0.4186   -0.0657 C   0  0  0  0  0  0  0  0  0  0  0  0
    2.2054   -0.1850    0.2590 N   0  0  0  0  0  0  0  0  0  0  0  0
    2.9764   -1.3568    0.3757 C   0  0  0  0  0  0  0  0  0  0  0  0
    2.3903   -2.5518    0.1444 N   0  0  0  0  0  0  0  0  0  0  0  0
    3.1274   -3.6727    0.3090 C   0  0  0  0  0  0  0  0  0  0  0  0
    4.4616   -3.6780    0.6814 C   0  0  0  0  0  0  0  0  0  0  0  0
    5.1903   -4.9359    0.8750 C   0  0  0  0  0  0  0  0  0  0  0  0
    5.8624   -5.6273   -0.2225 C   0  0  0  0  0  0  0  0  0  0  0  0
    6.4763   -6.7994    0.0081 C   0  0  0  0  0  0  0  0  0  0  0  0
    6.4520   -7.3571    1.2897 N   0  0  0  0  0  0  0  0  0  0  0  0
    6.9513   -8.5604    1.7797 C   0  0  0  0  0  0  0  0  0  0  0  0
    7.6380   -9.6270    1.0355 C   0  0  0  0  0  0  0  0  0  0  0  0
    8.6589  -10.3434    1.6773 C   0  0  0  0  0  0  0  0  0  0  0  0
    9.3212  -11.3809    1.0285 C   0  0  0  0  0  0  0  0  0  0  0  0
    8.9746  -11.7227   -0.2756 C   0  0  0  0  0  0  0  0  0  0  0  0
    7.9479  -11.0506   -0.9399 C   0  0  0  0  0  0  0  0  0  0  0  0
    7.5464  -11.3670   -2.2605 N   0  0  0  0  0  0  0  0  0  0  0  0
    8.0347  -12.3908   -3.0431 C   0  0  0  0  0  0  0  0  0  0  0  0
    8.8738  -13.2255   -2.7329 O   0  0  0  0  0  0  0  0  0  0  0  0
    7.4961  -12.3801   -4.3113 N   0  0  0  0  0  0  0  0  0  0  0  0
    7.8902  -13.4519   -5.2341 C   0  0  0  0  0  0  0  0  0  0  0  0
    7.2034  -14.8102   -5.0180 C   0  0  0  0  0  0  0  0  0  0  0  0
    6.1966  -14.7307   -4.1174 F   0  0  0  0  0  0  0  0  0  0  0  0
    6.6508  -15.2378   -6.1819 F   0  0  0  0  0  0  0  0  0  0  0  0
    8.0630  -15.7652   -4.6089 F   0  0  0  0  0  0  0  0  0  0  0  0
    7.2795  -10.0074   -0.2721 C   0  0  0  0  0  0  0  0  0  0  0  0
    6.6786   -8.4996    3.1410 C   0  0  0  0  0  0  0  0  0  0  0  0
    6.0101   -7.3624    3.4926 N   0  0  0  0  0  0  0  0  0  0  0  0
    5.8638   -6.6972    2.3711 C   0  0  0  0  0  0  0  0  0  0  0  0
    5.2171   -5.4543    2.1223 C   0  0  0  0  0  0  0  0  0  0  0  0
    5.0743   -2.4435    0.8709 C   0  0  0  0  0  0  0  0  0  0  0  0
    4.3311   -1.2589    0.7328 C   0  0  0  0  0  0  0  0  0  0  0  0
    5.0209    0.0637    0.9093 C   0  0  0  0  0  0  0  0  0  0  0  0
    0.2490    0.5152    0.0650 H   0  0  0  0  0  0  0  0  0  0  0  0
    0.3402   -1.1624    0.5917 H   0  0  0  0  0  0  0  0  0  0  0  0
    0.6932   -0.7277   -1.1103 H   0  0  0  0  0  0  0  0  0  0  0  0
    2.2977    0.3422    1.1217 H   0  0  0  0  0  0  0  0  0  0  0  0
    2.5866   -4.5991    0.1352 H   0  0  0  0  0  0  0  0  0  0  0  0
    5.8583   -5.1711   -1.2076 H   0  0  0  0  0  0  0  0  0  0  0  0
    7.0043   -7.3281   -0.7717 H   0  0  0  0  0  0  0  0  0  0  0  0
    8.9534  -10.1050    2.6971 H   0  0  0  0  0  0  0  0  0  0  0  0
   10.1094  -11.9303    1.5367 H   0  0  0  0  0  0  0  0  0  0  0  0
    9.5338  -12.5261   -0.7426 H   0  0  0  0  0  0  0  0  0  0  0  0
    6.8429  -10.7764   -2.6755 H   0  0  0  0  0  0  0  0  0  0  0  0
    6.5544  -12.0269   -4.4017 H   0  0  0  0  0  0  0  0  0  0  0  0
    8.9762  -13.5872   -5.1730 H   0  0  0  0  0  0  0  0  0  0  0  0
    7.6689  -13.0853   -6.2429 H   0  0  0  0  0  0  0  0  0  0  0  0
    6.4517   -9.5108   -0.7673 H   0  0  0  0  0  0  0  0  0  0  0  0
    6.9255   -9.2413    3.8910 H   0  0  0  0  0  0  0  0  0  0  0  0
    4.7420   -4.9634    2.9670 H   0  0  0  0  0  0  0  0  0  0  0  0
    6.1261   -2.3963    1.1422 H   0  0  0  0  0  0  0  0  0  0  0  0
    6.0070   -0.0625    1.3702 H   0  0  0  0  0  0  0  0  0  0  0  0
    4.4467    0.7199    1.5702 H   0  0  0  0  0  0  0  0  0  0  0  0
    5.1619    0.5528   -0.0598 H   0  0  0  0  0  0  0  0  0  0  0  0
  1  2  1  0  0  0  0
  1 34  1  0  0  0  0
  1 35  1  0  0  0  0
  1 36  1  0  0  0  0
  2  3  1  0  0  0  0
  2 37  1  0  0  0  0
  3  4  1  0  0  0  0
  3 32  2  0  0  0  0
  4  5  2  0  0  0  0
  5  6  1  0  0  0  0
  5 38  1  0  0  0  0
  6  7  1  0  0  0  0
  6 31  2  0  0  0  0
  7  8  1  0  0  0  0
  7 30  2  0  0  0  0
  8  9  2  0  0  0  0
  8 39  1  0  0  0  0
  9 10  1  0  0  0  0
  9 40  1  0  0  0  0
 10 11  1  0  0  0  0
 10 29  1  0  0  0  0
 11 12  1  0  0  0  0
 11 27  2  0  0  0  0
 12 13  1  0  0  0  0
 12 26  2  0  0  0  0
 13 14  2  0  0  0  0
 13 41  1  0  0  0  0
 14 15  1  0  0  0  0
 14 42  1  0  0  0  0
 15 16  2  0  0  0  0
 15 43  1  0  0  0  0
 16 17  1  0  0  0  0
 16 26  1  0  0  0  0
 17 18  1  0  0  0  0
 17 44  1  0  0  0  0
 18 19  2  0  0  0  0
 18 20  1  0  0  0  0
 20 21  1  0  0  0  0
 20 45  1  0  0  0  0
 21 22  1  0  0  0  0
 21 46  1  0  0  0  0
 21 47  1  0  0  0  0
 22 23  1  0  0  0  0
 22 24  1  0  0  0  0
 22 25  1  0  0  0  0
 26 48  1  0  0  0  0
 27 28  1  0  0  0  0
 27 49  1  0  0  0  0
 28 29  2  0  0  0  0
 29 30  1  0  0  0  0
 30 50  1  0  0  0  0
 31 32  1  0  0  0  0
 31 51  1  0  0  0  0
 32 33  1  0  0  0  0
 33 52  1  0  0  0  0
 33 53  1  0  0  0  0
 33 54  1  0  0  0  0
M  END
$$$$
