CHEMBL231356
 OpenBabel04072215363D

 48 51  0  0  0  0  0  0  0  0999 V2000
   -5.6209    3.0697    2.1613 C   0  0  0  0  0  0  0  0  0  0  0  0
   -4.5179    2.0859    1.8952 C   0  0  0  0  0  0  0  0  0  0  0  0
   -3.1834    2.4631    2.0521 C   0  0  0  0  0  0  0  0  0  0  0  0
   -2.1637    1.5511    1.7931 C   0  0  0  0  0  0  0  0  0  0  0  0
   -2.4667    0.2540    1.3702 C   0  0  0  0  0  0  0  0  0  0  0  0
   -3.7909   -0.1513    1.2121 C   0  0  0  0  0  0  0  0  0  0  0  0
   -4.1703   -1.4491    0.8045 N   0  0  0  0  0  0  0  0  0  0  0  0
   -3.3545   -2.4855    0.3669 C   0  0  0  0  0  0  0  0  0  0  0  0
   -2.1248   -2.4156    0.3222 O   0  0  0  0  0  0  0  0  0  0  0  0
   -4.0225   -3.6735    0.0331 N   0  0  0  0  0  0  0  0  0  0  0  0
   -3.2244   -4.8568   -0.2875 C   0  0  0  0  0  0  0  0  0  0  0  0
   -5.4255   -3.8112   -0.1357 C   0  0  0  0  0  0  0  0  0  0  0  0
   -6.1446   -2.8930   -0.9037 C   0  0  0  0  0  0  0  0  0  0  0  0
   -7.5383   -2.9576   -0.9502 C   0  0  0  0  0  0  0  0  0  0  0  0
   -8.2364   -3.9683   -0.2709 C   0  0  0  0  0  0  0  0  0  0  0  0
   -9.7051   -3.9641   -0.2203 C   0  0  0  0  0  0  0  0  0  0  0  0
  -10.4117   -3.5699   -1.3414 C   0  0  0  0  0  0  0  0  0  0  0  0
  -12.0906   -3.5770   -1.1185 S   0  0  0  0  0  0  0  0  0  0  0  0
  -11.9424   -4.1450    0.4955 C   0  0  0  0  0  0  0  0  0  0  0  0
  -13.0155   -4.4192    1.3512 C   0  0  0  0  0  0  0  0  0  0  0  0
  -12.6889   -4.8676    2.6078 C   0  0  0  0  0  0  0  0  0  0  0  0
  -11.4313   -5.0235    3.0435 N   0  0  0  0  0  0  0  0  0  0  0  0
  -10.3881   -4.7423    2.2308 C   0  0  0  0  0  0  0  0  0  0  0  0
   -9.1528   -4.9005    2.8490 N   0  0  0  0  0  0  0  0  0  0  0  0
  -10.6057   -4.3063    0.8918 C   0  0  0  0  0  0  0  0  0  0  0  0
   -7.4935   -4.9644    0.3722 C   0  0  0  0  0  0  0  0  0  0  0  0
   -6.1034   -4.8707    0.4676 C   0  0  0  0  0  0  0  0  0  0  0  0
   -4.8158    0.7734    1.4824 C   0  0  0  0  0  0  0  0  0  0  0  0
   -5.2213    4.0455    2.4624 H   0  0  0  0  0  0  0  0  0  0  0  0
   -6.2655    2.7107    2.9685 H   0  0  0  0  0  0  0  0  0  0  0  0
   -6.2196    3.2236    1.2574 H   0  0  0  0  0  0  0  0  0  0  0  0
   -2.9240    3.4688    2.3774 H   0  0  0  0  0  0  0  0  0  0  0  0
   -1.1253    1.8429    1.9219 H   0  0  0  0  0  0  0  0  0  0  0  0
   -1.6373   -0.4204    1.1899 H   0  0  0  0  0  0  0  0  0  0  0  0
   -5.1578   -1.6473    0.8551 H   0  0  0  0  0  0  0  0  0  0  0  0
   -2.1522   -4.6425   -0.2965 H   0  0  0  0  0  0  0  0  0  0  0  0
   -3.5036   -5.2148   -1.2852 H   0  0  0  0  0  0  0  0  0  0  0  0
   -3.4051   -5.6435    0.4498 H   0  0  0  0  0  0  0  0  0  0  0  0
   -5.6278   -2.1183   -1.4671 H   0  0  0  0  0  0  0  0  0  0  0  0
   -8.0636   -2.1925   -1.5181 H   0  0  0  0  0  0  0  0  0  0  0  0
  -10.0226   -3.2656   -2.3048 H   0  0  0  0  0  0  0  0  0  0  0  0
  -14.0444   -4.2920    1.0412 H   0  0  0  0  0  0  0  0  0  0  0  0
  -13.4622   -5.1151    3.3296 H   0  0  0  0  0  0  0  0  0  0  0  0
   -9.3055   -5.0387    3.8424 H   0  0  0  0  0  0  0  0  0  0  0  0
   -8.4898   -4.1730    2.6164 H   0  0  0  0  0  0  0  0  0  0  0  0
   -7.9882   -5.8053    0.8527 H   0  0  0  0  0  0  0  0  0  0  0  0
   -5.5773   -5.6004    1.0775 H   0  0  0  0  0  0  0  0  0  0  0  0
   -5.8569    0.4851    1.3638 H   0  0  0  0  0  0  0  0  0  0  0  0
  1  2  1  0  0  0  0
  1 29  1  0  0  0  0
  1 30  1  0  0  0  0
  1 31  1  0  0  0  0
  2  3  1  0  0  0  0
  2 28  2  0  0  0  0
  3  4  2  0  0  0  0
  3 32  1  0  0  0  0
  4  5  1  0  0  0  0
  4 33  1  0  0  0  0
  5  6  2  0  0  0  0
  5 34  1  0  0  0  0
  6  7  1  0  0  0  0
  6 28  1  0  0  0  0
  7  8  1  0  0  0  0
  7 35  1  0  0  0  0
  8  9  2  0  0  0  0
  8 10  1  0  0  0  0
 10 11  1  0  0  0  0
 10 12  1  0  0  0  0
 11 36  1  0  0  0  0
 11 37  1  0  0  0  0
 11 38  1  0  0  0  0
 12 13  1  0  0  0  0
 12 27  2  0  0  0  0
 13 14  2  0  0  0  0
 13 39  1  0  0  0  0
 14 15  1  0  0  0  0
 14 40  1  0  0  0  0
 15 16  1  0  0  0  0
 15 26  2  0  0  0  0
 16 17  2  0  0  0  0
 16 25  1  0  0  0  0
 17 18  1  0  0  0  0
 17 41  1  0  0  0  0
 18 19  1  0  0  0  0
 19 20  1  0  0  0  0
 19 25  2  0  0  0  0
 20 21  2  0  0  0  0
 20 42  1  0  0  0  0
 21 22  1  0  0  0  0
 21 43  1  0  0  0  0
 22 23  2  0  0  0  0
 23 24  1  0  0  0  0
 23 25  1  0  0  0  0
 24 44  1  0  0  0  0
 24 45  1  0  0  0  0
 26 27  1  0  0  0  0
 26 46  1  0  0  0  0
 27 47  1  0  0  0  0
 28 48  1  0  0  0  0
M  END
$$$$
