CHEMBL497739
 OpenBabel04072215383D

 60 64  0  0  0  0  0  0  0  0999 V2000
    1.6385   -0.9302   -3.0053 N   0  0  0  0  0  0  0  0  0  0  0  0
    2.9339   -0.9449   -2.4708 C   0  0  0  0  0  0  0  0  0  0  0  0
    3.1071   -1.0424   -1.0793 C   0  0  0  0  0  0  0  0  0  0  0  0
    4.3738   -0.9381   -0.4881 C   0  0  0  0  0  0  0  0  0  0  0  0
    5.4694   -0.6851   -1.2931 C   0  0  0  0  0  0  0  0  0  0  0  0
    5.2802   -0.5506   -2.6721 C   0  0  0  0  0  0  0  0  0  0  0  0
    4.0364   -0.6427   -3.2753 C   0  0  0  0  0  0  0  0  0  0  0  0
    6.4946   -0.3256   -3.3150 N   0  0  0  0  0  0  0  0  0  0  0  0
    7.5455   -0.3103   -2.4130 C   0  0  0  0  0  0  0  0  0  0  0  0
    8.7342   -0.2732   -2.6746 O   0  0  0  0  0  0  0  0  0  0  0  0
    6.9063   -0.4512   -1.0505 C   0  0  0  0  0  0  0  0  0  0  0  0
    7.6273   -0.3061    0.0853 C   0  0  0  0  0  0  0  0  0  0  0  0
    8.9926    0.0375    0.1648 N   0  0  0  0  0  0  0  0  0  0  0  0
    9.3740    1.4223    0.1704 C   0  0  0  0  0  0  0  0  0  0  0  0
    8.6639    2.4049    0.8651 C   0  0  0  0  0  0  0  0  0  0  0  0
    8.9232    3.7636    0.6743 C   0  0  0  0  0  0  0  0  0  0  0  0
    9.9563    4.1687   -0.1693 C   0  0  0  0  0  0  0  0  0  0  0  0
   10.0456    5.6045   -0.6335 C   0  0  0  0  0  0  0  0  0  0  0  0
   10.0749    6.6336    0.4295 N   0  0  0  0  0  0  0  0  0  0  0  0
   11.3576    6.5735    1.1495 C   0  0  0  0  0  0  0  0  0  0  0  0
   11.5907    7.7602    2.0864 C   0  0  0  0  0  0  0  0  0  0  0  0
   11.4464    9.0778    1.3404 C   0  0  0  0  0  0  0  0  0  0  0  0
   10.0620    9.1420    0.7169 C   0  0  0  0  0  0  0  0  0  0  0  0
    9.8282    7.9443   -0.2017 C   0  0  0  0  0  0  0  0  0  0  0  0
   10.8050    3.1875   -0.7000 C   0  0  0  0  0  0  0  0  0  0  0  0
   10.5248    1.8264   -0.5174 C   0  0  0  0  0  0  0  0  0  0  0  0
    7.0041   -0.6676    1.3796 C   0  0  0  0  0  0  0  0  0  0  0  0
    7.1495   -1.9784    1.8551 C   0  0  0  0  0  0  0  0  0  0  0  0
    6.5375   -2.3699    3.0479 C   0  0  0  0  0  0  0  0  0  0  0  0
    5.7991   -1.4482    3.7884 C   0  0  0  0  0  0  0  0  0  0  0  0
    5.6465   -0.1437    3.3248 C   0  0  0  0  0  0  0  0  0  0  0  0
    6.2259    0.2358    2.1130 C   0  0  0  0  0  0  0  0  0  0  0  0
    0.9665   -1.4591   -2.4562 H   0  0  0  0  0  0  0  0  0  0  0  0
    1.5965   -1.1704   -3.9905 H   0  0  0  0  0  0  0  0  0  0  0  0
    2.2454   -1.2000   -0.4343 H   0  0  0  0  0  0  0  0  0  0  0  0
    4.4528   -1.0430    0.5856 H   0  0  0  0  0  0  0  0  0  0  0  0
    3.9201   -0.4819   -4.3406 H   0  0  0  0  0  0  0  0  0  0  0  0
    6.6283   -0.2626   -4.3122 H   0  0  0  0  0  0  0  0  0  0  0  0
    9.4580   -0.3454   -0.6698 H   0  0  0  0  0  0  0  0  0  0  0  0
    7.8637    2.1439    1.5366 H   0  0  0  0  0  0  0  0  0  0  0  0
    8.2800    4.5033    1.1461 H   0  0  0  0  0  0  0  0  0  0  0  0
    9.1547    5.7590   -1.2595 H   0  0  0  0  0  0  0  0  0  0  0  0
   10.9063    5.7273   -1.3051 H   0  0  0  0  0  0  0  0  0  0  0  0
   12.1958    6.5223    0.4429 H   0  0  0  0  0  0  0  0  0  0  0  0
   11.3881    5.6607    1.7568 H   0  0  0  0  0  0  0  0  0  0  0  0
   12.5940    7.6910    2.5214 H   0  0  0  0  0  0  0  0  0  0  0  0
   10.8761    7.7271    2.9182 H   0  0  0  0  0  0  0  0  0  0  0  0
   12.2121    9.1502    0.5574 H   0  0  0  0  0  0  0  0  0  0  0  0
   11.5972    9.9220    2.0210 H   0  0  0  0  0  0  0  0  0  0  0  0
    9.9576   10.0698    0.1423 H   0  0  0  0  0  0  0  0  0  0  0  0
    9.2999    9.1660    1.5055 H   0  0  0  0  0  0  0  0  0  0  0  0
   10.4572    8.0663   -1.0934 H   0  0  0  0  0  0  0  0  0  0  0  0
    8.7840    7.9816   -0.5388 H   0  0  0  0  0  0  0  0  0  0  0  0
   11.6559    3.4697   -1.3150 H   0  0  0  0  0  0  0  0  0  0  0  0
   11.1720    1.0900   -0.9866 H   0  0  0  0  0  0  0  0  0  0  0  0
    7.7276   -2.7048    1.2878 H   0  0  0  0  0  0  0  0  0  0  0  0
    6.6395   -3.3934    3.3982 H   0  0  0  0  0  0  0  0  0  0  0  0
    5.3365   -1.7475    4.7246 H   0  0  0  0  0  0  0  0  0  0  0  0
    5.0706    0.5788    3.8970 H   0  0  0  0  0  0  0  0  0  0  0  0
    6.0360    1.2369    1.7366 H   0  0  0  0  0  0  0  0  0  0  0  0
  1  2  1  0  0  0  0
  1 33  1  0  0  0  0
  1 34  1  0  0  0  0
  2  3  1  0  0  0  0
  2  7  2  0  0  0  0
  3  4  2  0  0  0  0
  3 35  1  0  0  0  0
  4  5  1  0  0  0  0
  4 36  1  0  0  0  0
  5  6  2  0  0  0  0
  5 11  1  0  0  0  0
  6  7  1  0  0  0  0
  6  8  1  0  0  0  0
  7 37  1  0  0  0  0
  8  9  1  0  0  0  0
  8 38  1  0  0  0  0
  9 10  2  0  0  0  0
  9 11  1  0  0  0  0
 11 12  2  0  0  0  0
 12 13  1  0  0  0  0
 12 27  1  0  0  0  0
 13 14  1  0  0  0  0
 13 39  1  0  0  0  0
 14 15  1  0  0  0  0
 14 26  2  0  0  0  0
 15 16  2  0  0  0  0
 15 40  1  0  0  0  0
 16 17  1  0  0  0  0
 16 41  1  0  0  0  0
 17 18  1  0  0  0  0
 17 25  2  0  0  0  0
 18 19  1  0  0  0  0
 18 42  1  0  0  0  0
 18 43  1  0  0  0  0
 19 20  1  0  0  0  0
 19 24  1  0  0  0  0
 20 21  1  0  0  0  0
 20 44  1  0  0  0  0
 20 45  1  0  0  0  0
 21 22  1  0  0  0  0
 21 46  1  0  0  0  0
 21 47  1  0  0  0  0
 22 23  1  0  0  0  0
 22 48  1  0  0  0  0
 22 49  1  0  0  0  0
 23 24  1  0  0  0  0
 23 50  1  0  0  0  0
 23 51  1  0  0  0  0
 24 52  1  0  0  0  0
 24 53  1  0  0  0  0
 25 26  1  0  0  0  0
 25 54  1  0  0  0  0
 26 55  1  0  0  0  0
 27 28  1  0  0  0  0
 27 32  2  0  0  0  0
 28 29  2  0  0  0  0
 28 56  1  0  0  0  0
 29 30  1  0  0  0  0
 29 57  1  0  0  0  0
 30 31  2  0  0  0  0
 30 58  1  0  0  0  0
 31 32  1  0  0  0  0
 31 59  1  0  0  0  0
 32 60  1  0  0  0  0
M  END
$$$$
