CHEMBL1969372
 OpenBabel04072215363D

 44 47  0  0  0  0  0  0  0  0999 V2000
    1.9180    1.7782    0.6346 C   0  0  0  0  0  0  0  0  0  0  0  0
    2.6956    2.5169   -0.2952 O   0  0  0  0  0  0  0  0  0  0  0  0
    3.6602    1.6868   -0.9569 C   0  0  0  0  0  0  0  0  0  0  0  0
    4.4499    2.5515   -1.9437 C   0  0  0  0  0  0  0  0  0  0  0  0
    5.1667    3.6053   -1.2382 N   0  0  0  0  0  0  0  0  0  0  0  0
    6.4016    3.2812   -0.7154 C   0  0  0  0  0  0  0  0  0  0  0  0
    6.7909    3.9680    0.3619 N   0  0  0  0  0  0  0  0  0  0  0  0
    8.0694    3.8192    0.7459 C   0  0  0  0  0  0  0  0  0  0  0  0
    8.9744    3.0295    0.0803 C   0  0  0  0  0  0  0  0  0  0  0  0
    8.4708    2.3140   -0.9811 C   0  0  0  0  0  0  0  0  0  0  0  0
    9.2859    1.4816   -1.8695 C   0  0  0  0  0  0  0  0  0  0  0  0
    9.2281    1.2720   -3.2566 C   0  0  0  0  0  0  0  0  0  0  0  0
    8.3193    1.8884   -4.2245 C   0  0  0  0  0  0  0  0  0  0  0  0
    7.8979    3.2220   -4.1063 C   0  0  0  0  0  0  0  0  0  0  0  0
    6.9798    3.7687   -5.0063 C   0  0  0  0  0  0  0  0  0  0  0  0
    6.5179    2.9985   -6.0631 C   0  0  0  0  0  0  0  0  0  0  0  0
    5.6383    3.5222   -6.9268 F   0  0  0  0  0  0  0  0  0  0  0  0
    6.9606    1.6916   -6.2368 C   0  0  0  0  0  0  0  0  0  0  0  0
    7.8581    1.1383   -5.3180 C   0  0  0  0  0  0  0  0  0  0  0  0
   10.1850    0.3649   -3.6735 N   0  0  0  0  0  0  0  0  0  0  0  0
   10.8329    0.0504   -2.5814 C   0  0  0  0  0  0  0  0  0  0  0  0
   11.9602   -0.8314   -2.4436 C   0  0  0  0  0  0  0  0  0  0  0  0
   12.5204   -1.0598   -1.2843 N   0  0  0  0  0  0  0  0  0  0  0  0
   11.9716   -0.4382   -0.1786 C   0  0  0  0  0  0  0  0  0  0  0  0
   10.9142    0.3897   -0.2284 C   0  0  0  0  0  0  0  0  0  0  0  0
   10.3326    0.6655   -1.4608 N   0  0  0  0  0  0  0  0  0  0  0  0
    7.1839    2.4044   -1.3531 N   0  0  0  0  0  0  0  0  0  0  0  0
    1.2033    2.4607    1.1022 H   0  0  0  0  0  0  0  0  0  0  0  0
    2.5571    1.3522    1.4134 H   0  0  0  0  0  0  0  0  0  0  0  0
    1.3628    0.9860    0.1238 H   0  0  0  0  0  0  0  0  0  0  0  0
    3.1413    0.8899   -1.5004 H   0  0  0  0  0  0  0  0  0  0  0  0
    4.3277    1.2396   -0.2115 H   0  0  0  0  0  0  0  0  0  0  0  0
    3.7466    3.0411   -2.6272 H   0  0  0  0  0  0  0  0  0  0  0  0
    5.1073    1.9299   -2.5623 H   0  0  0  0  0  0  0  0  0  0  0  0
    4.6194    4.0605   -0.5135 H   0  0  0  0  0  0  0  0  0  0  0  0
    8.3620    4.4034    1.6135 H   0  0  0  0  0  0  0  0  0  0  0  0
   10.0129    3.0183    0.3744 H   0  0  0  0  0  0  0  0  0  0  0  0
    8.2558    3.8508   -3.2963 H   0  0  0  0  0  0  0  0  0  0  0  0
    6.6218    4.7849   -4.8761 H   0  0  0  0  0  0  0  0  0  0  0  0
    6.6016    1.1150   -7.0833 H   0  0  0  0  0  0  0  0  0  0  0  0
    8.1940    0.1125   -5.4581 H   0  0  0  0  0  0  0  0  0  0  0  0
   12.3611   -1.3219   -3.3452 H   0  0  0  0  0  0  0  0  0  0  0  0
   12.4576   -0.6512    0.7713 H   0  0  0  0  0  0  0  0  0  0  0  0
   10.5000    0.8372    0.6629 H   0  0  0  0  0  0  0  0  0  0  0  0
  1  2  1  0  0  0  0
  1 28  1  0  0  0  0
  1 29  1  0  0  0  0
  1 30  1  0  0  0  0
  2  3  1  0  0  0  0
  3  4  1  0  0  0  0
  3 31  1  0  0  0  0
  3 32  1  0  0  0  0
  4  5  1  0  0  0  0
  4 33  1  0  0  0  0
  4 34  1  0  0  0  0
  5  6  1  0  0  0  0
  5 35  1  0  0  0  0
  6  7  1  0  0  0  0
  6 27  2  0  0  0  0
  7  8  2  0  0  0  0
  8  9  1  0  0  0  0
  8 36  1  0  0  0  0
  9 10  2  0  0  0  0
  9 37  1  0  0  0  0
 10 11  1  0  0  0  0
 10 27  1  0  0  0  0
 11 12  2  0  0  0  0
 11 26  1  0  0  0  0
 12 13  1  0  0  0  0
 12 20  1  0  0  0  0
 13 14  1  0  0  0  0
 13 19  2  0  0  0  0
 14 15  2  0  0  0  0
 14 38  1  0  0  0  0
 15 16  1  0  0  0  0
 15 39  1  0  0  0  0
 16 17  1  0  0  0  0
 16 18  2  0  0  0  0
 18 19  1  0  0  0  0
 18 40  1  0  0  0  0
 19 41  1  0  0  0  0
 20 21  2  0  0  0  0
 21 22  1  0  0  0  0
 21 26  1  0  0  0  0
 22 23  2  0  0  0  0
 22 42  1  0  0  0  0
 23 24  1  0  0  0  0
 24 25  2  0  0  0  0
 24 43  1  0  0  0  0
 25 26  1  0  0  0  0
 25 44  1  0  0  0  0
M  END
$$$$
