CHEMBL248392
 OpenBabel04072215363D

 64 68  0  0  1  0  0  0  0  0999 V2000
    1.1823   -1.1312   -0.7999 C   0  0  0  0  0  0  0  0  0  0  0  0
    2.2482   -0.3900   -0.2212 O   0  0  0  0  0  0  0  0  0  0  0  0
    3.0476   -1.0254    0.6890 C   0  0  0  0  0  0  0  0  0  0  0  0
    2.7456   -2.2687    1.2648 C   0  0  0  0  0  0  0  0  0  0  0  0
    3.5953   -2.9193    2.2036 C   0  0  0  0  0  0  0  0  0  0  0  0
    3.3035   -4.1741    2.8566 C   0  0  0  0  0  0  0  0  0  0  0  0
    2.0672   -4.8557    2.5764 N   0  0  0  0  0  0  0  0  0  0  0  0
    1.9598   -6.3434    2.4861 C   0  0  2  0  0  0  0  0  0  0  0  0
    2.9257   -7.1373    1.6605 C   0  0  0  0  0  0  0  0  0  0  0  0
    1.5221   -6.9170    1.1518 C   0  0  1  0  0  0  0  0  0  0  0  0
    0.7133   -8.1444    0.8048 C   0  0  0  0  0  0  0  0  0  0  0  0
   -0.4501   -8.5720    1.4594 C   0  0  0  0  0  0  0  0  0  0  0  0
   -1.2740   -9.5596    0.8908 C   0  0  0  0  0  0  0  0  0  0  0  0
   -0.9470  -10.1402   -0.3351 C   0  0  0  0  0  0  0  0  0  0  0  0
    0.2324   -9.7786   -0.9696 C   0  0  0  0  0  0  0  0  0  0  0  0
    1.0516   -8.8085   -0.3942 C   0  0  0  0  0  0  0  0  0  0  0  0
    4.2043   -4.6298    3.8286 C   0  0  0  0  0  0  0  0  0  0  0  0
    3.9474   -5.7203    4.7086 C   0  0  0  0  0  0  0  0  0  0  0  0
    3.7466   -6.5947    5.4416 N   0  0  0  0  0  0  0  0  0  0  0  0
    5.3799   -3.9242    4.0257 C   0  0  0  0  0  0  0  0  0  0  0  0
    5.7005   -2.7811    3.3860 N   0  0  0  0  0  0  0  0  0  0  0  0
    4.8107   -2.2714    2.5225 C   0  0  0  0  0  0  0  0  0  0  0  0
    5.1041   -1.0430    1.9456 C   0  0  0  0  0  0  0  0  0  0  0  0
    4.2309   -0.3937    1.0639 C   0  0  0  0  0  0  0  0  0  0  0  0
    4.6941    0.7999    0.5854 O   0  0  0  0  0  0  0  0  0  0  0  0
    3.7496    1.8676    0.3868 C   0  0  0  0  0  0  0  0  0  0  0  0
    4.4791    3.1378    0.8154 C   0  0  0  0  0  0  0  0  0  0  0  0
    3.7086    4.4589    0.6435 C   0  0  0  0  0  0  0  0  0  0  0  0
    4.5753    5.5790    1.0330 N   0  0  0  0  0  0  0  0  0  0  0  0
    4.9336    5.6350    2.4612 C   0  0  0  0  0  0  0  0  0  0  0  0
    3.9649    6.4490    3.3214 C   0  0  0  0  0  0  0  0  0  0  0  0
    3.9045    7.7941    2.8459 O   0  0  0  0  0  0  0  0  0  0  0  0
    3.3829    7.8119    1.5139 C   0  0  0  0  0  0  0  0  0  0  0  0
    4.1727    6.9089    0.5419 C   0  0  0  0  0  0  0  0  0  0  0  0
    0.6207   -0.4564   -1.4514 H   0  0  0  0  0  0  0  0  0  0  0  0
    0.4830   -1.4976   -0.0418 H   0  0  0  0  0  0  0  0  0  0  0  0
    1.5718   -1.9521   -1.4110 H   0  0  0  0  0  0  0  0  0  0  0  0
    1.8161   -2.7448    0.9905 H   0  0  0  0  0  0  0  0  0  0  0  0
    1.5888   -4.4255    1.7930 H   0  0  0  0  0  0  0  0  0  0  0  0
    1.5661   -6.7952    3.3924 H   0  0  0  0  0  0  0  0  0  0  0  0
    3.2035   -8.1126    2.0471 H   0  0  0  0  0  0  0  0  0  0  0  0
    3.7193   -6.6349    1.1227 H   0  0  0  0  0  0  0  0  0  0  0  0
    1.3961   -6.1515    0.3868 H   0  0  0  0  0  0  0  0  0  0  0  0
   -0.7590   -8.1107    2.3942 H   0  0  0  0  0  0  0  0  0  0  0  0
   -2.1962   -9.8548    1.3872 H   0  0  0  0  0  0  0  0  0  0  0  0
   -1.6122  -10.8636   -0.8006 H   0  0  0  0  0  0  0  0  0  0  0  0
    0.5038  -10.2172   -1.9260 H   0  0  0  0  0  0  0  0  0  0  0  0
    1.9556   -8.5101   -0.9229 H   0  0  0  0  0  0  0  0  0  0  0  0
    6.1219   -4.2503    4.7536 H   0  0  0  0  0  0  0  0  0  0  0  0
    6.0428   -0.5556    2.2076 H   0  0  0  0  0  0  0  0  0  0  0  0
    2.8468    1.7448    0.9960 H   0  0  0  0  0  0  0  0  0  0  0  0
    3.4881    1.9104   -0.6757 H   0  0  0  0  0  0  0  0  0  0  0  0
    5.4296    3.1991    0.2681 H   0  0  0  0  0  0  0  0  0  0  0  0
    4.7546    2.9841    1.8633 H   0  0  0  0  0  0  0  0  0  0  0  0
    2.7691    4.4555    1.2074 H   0  0  0  0  0  0  0  0  0  0  0  0
    3.4490    4.5517   -0.4197 H   0  0  0  0  0  0  0  0  0  0  0  0
    5.9241    6.1025    2.5171 H   0  0  0  0  0  0  0  0  0  0  0  0
    5.0498    4.6462    2.9096 H   0  0  0  0  0  0  0  0  0  0  0  0
    4.3242    6.4742    4.3552 H   0  0  0  0  0  0  0  0  0  0  0  0
    2.9585    6.0134    3.3295 H   0  0  0  0  0  0  0  0  0  0  0  0
    3.4383    8.8504    1.1679 H   0  0  0  0  0  0  0  0  0  0  0  0
    2.3256    7.5303    1.5492 H   0  0  0  0  0  0  0  0  0  0  0  0
    5.1083    7.4340    0.3094 H   0  0  0  0  0  0  0  0  0  0  0  0
    3.6320    6.8444   -0.4101 H   0  0  0  0  0  0  0  0  0  0  0  0
  1  2  1  0  0  0  0
  1 35  1  0  0  0  0
  1 36  1  0  0  0  0
  1 37  1  0  0  0  0
  2  3  1  0  0  0  0
  3  4  1  0  0  0  0
  3 24  2  0  0  0  0
  4  5  2  0  0  0  0
  4 38  1  0  0  0  0
  5  6  1  0  0  0  0
  5 22  1  0  0  0  0
  6  7  1  0  0  0  0
  6 17  2  0  0  0  0
  7  8  1  0  0  0  0
  7 39  1  0  0  0  0
  8  9  1  0  0  0  0
  8 10  1  0  0  0  0
  8 40  1  1  0  0  0
  9 10  1  0  0  0  0
  9 41  1  0  0  0  0
  9 42  1  0  0  0  0
 10 11  1  0  0  0  0
 10 43  1  6  0  0  0
 11 12  1  0  0  0  0
 11 16  2  0  0  0  0
 12 13  2  0  0  0  0
 12 44  1  0  0  0  0
 13 14  1  0  0  0  0
 13 45  1  0  0  0  0
 14 15  2  0  0  0  0
 14 46  1  0  0  0  0
 15 16  1  0  0  0  0
 15 47  1  0  0  0  0
 16 48  1  0  0  0  0
 17 18  1  0  0  0  0
 17 20  1  0  0  0  0
 18 19  3  0  0  0  0
 20 21  2  0  0  0  0
 20 49  1  0  0  0  0
 21 22  1  0  0  0  0
 22 23  2  0  0  0  0
 23 24  1  0  0  0  0
 23 50  1  0  0  0  0
 24 25  1  0  0  0  0
 25 26  1  0  0  0  0
 26 27  1  0  0  0  0
 26 51  1  0  0  0  0
 26 52  1  0  0  0  0
 27 28  1  0  0  0  0
 27 53  1  0  0  0  0
 27 54  1  0  0  0  0
 28 29  1  0  0  0  0
 28 55  1  0  0  0  0
 28 56  1  0  0  0  0
 29 30  1  0  0  0  0
 29 34  1  0  0  0  0
 30 31  1  0  0  0  0
 30 57  1  0  0  0  0
 30 58  1  0  0  0  0
 31 32  1  0  0  0  0
 31 59  1  0  0  0  0
 31 60  1  0  0  0  0
 32 33  1  0  0  0  0
 33 34  1  0  0  0  0
 33 61  1  0  0  0  0
 33 62  1  0  0  0  0
 34 63  1  0  0  0  0
 34 64  1  0  0  0  0
M  END
$$$$
