CHEMBL362634
 OpenBabel04072215373D

 55 58  0  0  0  0  0  0  0  0999 V2000
    4.5460   -1.2967    0.3529 C   0  0  0  0  0  0  0  0  0  0  0  0
    4.1164    0.0305    0.6613 O   0  0  0  0  0  0  0  0  0  0  0  0
    4.3258    0.9282   -0.3532 C   0  0  0  0  0  0  0  0  0  0  0  0
    5.4730    0.8852   -1.1544 C   0  0  0  0  0  0  0  0  0  0  0  0
    5.6571    1.7262   -2.2409 C   0  0  0  0  0  0  0  0  0  0  0  0
    6.7834    1.5597   -2.9499 N   0  0  0  0  0  0  0  0  0  0  0  0
    6.9830    2.3379   -4.0293 C   0  0  0  0  0  0  0  0  0  0  0  0
    6.1083    3.3221   -4.4274 C   0  0  0  0  0  0  0  0  0  0  0  0
    4.9486    3.5213   -3.6780 C   0  0  0  0  0  0  0  0  0  0  0  0
    4.1474    4.5260   -4.1971 O   0  0  0  0  0  0  0  0  0  0  0  0
    3.4347    5.3593   -3.3716 C   0  0  0  0  0  0  0  0  0  0  0  0
    3.8461    5.7395   -2.1009 C   0  0  0  0  0  0  0  0  0  0  0  0
    2.9406    6.3753   -1.2476 C   0  0  0  0  0  0  0  0  0  0  0  0
    1.6539    6.7245   -1.6726 C   0  0  0  0  0  0  0  0  0  0  0  0
    0.6614    7.2530   -0.8112 N   0  0  0  0  0  0  0  0  0  0  0  0
    0.8218    7.5103    0.5337 C   0  0  0  0  0  0  0  0  0  0  0  0
    1.8896    7.4360    1.1376 O   0  0  0  0  0  0  0  0  0  0  0  0
   -0.3752    7.8265    1.1647 N   0  0  0  0  0  0  0  0  0  0  0  0
   -0.3745    8.1173    2.5528 C   0  0  0  0  0  0  0  0  0  0  0  0
    0.5941    8.9577    3.1133 C   0  0  0  0  0  0  0  0  0  0  0  0
    0.6727    9.1316    4.4943 C   0  0  0  0  0  0  0  0  0  0  0  0
   -0.2207    8.4662    5.3376 C   0  0  0  0  0  0  0  0  0  0  0  0
   -0.0918    8.5826    6.8272 C   0  0  0  0  0  0  0  0  0  0  0  0
   -1.2190    7.6616    4.7714 C   0  0  0  0  0  0  0  0  0  0  0  0
   -1.3128    7.5056    3.3828 C   0  0  0  0  0  0  0  0  0  0  0  0
    1.3148    6.4842   -3.0112 C   0  0  0  0  0  0  0  0  0  0  0  0
    2.2017    5.8051   -3.8530 C   0  0  0  0  0  0  0  0  0  0  0  0
    4.6647    2.6771   -2.5644 C   0  0  0  0  0  0  0  0  0  0  0  0
    3.5000    2.6958   -1.7479 C   0  0  0  0  0  0  0  0  0  0  0  0
    3.3618    1.8970   -0.6096 C   0  0  0  0  0  0  0  0  0  0  0  0
    2.2200    2.1291    0.1106 O   0  0  0  0  0  0  0  0  0  0  0  0
    2.3452    2.0135    1.5265 C   0  0  0  0  0  0  0  0  0  0  0  0
    3.9825   -1.9902    0.9841 H   0  0  0  0  0  0  0  0  0  0  0  0
    5.6086   -1.4114    0.5869 H   0  0  0  0  0  0  0  0  0  0  0  0
    4.3474   -1.5636   -0.6912 H   0  0  0  0  0  0  0  0  0  0  0  0
    6.2633    0.1702   -0.9422 H   0  0  0  0  0  0  0  0  0  0  0  0
    7.8968    2.1365   -4.5815 H   0  0  0  0  0  0  0  0  0  0  0  0
    6.3213    3.9240   -5.3033 H   0  0  0  0  0  0  0  0  0  0  0  0
    4.8206    5.4605   -1.7111 H   0  0  0  0  0  0  0  0  0  0  0  0
    3.2761    6.5349   -0.2290 H   0  0  0  0  0  0  0  0  0  0  0  0
   -0.2299    7.4909   -1.2206 H   0  0  0  0  0  0  0  0  0  0  0  0
   -1.1788    7.3264    0.8147 H   0  0  0  0  0  0  0  0  0  0  0  0
    1.3213    9.4617    2.4799 H   0  0  0  0  0  0  0  0  0  0  0  0
    1.4579    9.7641    4.9014 H   0  0  0  0  0  0  0  0  0  0  0  0
    0.7108    9.2736    7.1076 H   0  0  0  0  0  0  0  0  0  0  0  0
    0.1425    7.6055    7.2619 H   0  0  0  0  0  0  0  0  0  0  0  0
   -1.0238    8.9586    7.2597 H   0  0  0  0  0  0  0  0  0  0  0  0
   -1.9110    7.1228    5.4150 H   0  0  0  0  0  0  0  0  0  0  0  0
   -2.0701    6.8415    2.9777 H   0  0  0  0  0  0  0  0  0  0  0  0
    0.3459    6.7798   -3.4055 H   0  0  0  0  0  0  0  0  0  0  0  0
    1.9104    5.5748   -4.8768 H   0  0  0  0  0  0  0  0  0  0  0  0
    2.6752    3.3645   -1.9751 H   0  0  0  0  0  0  0  0  0  0  0  0
    1.6708    2.7447    1.9847 H   0  0  0  0  0  0  0  0  0  0  0  0
    3.3543    2.2294    1.8974 H   0  0  0  0  0  0  0  0  0  0  0  0
    2.0176    1.0185    1.8424 H   0  0  0  0  0  0  0  0  0  0  0  0
  1  2  1  0  0  0  0
  1 33  1  0  0  0  0
  1 34  1  0  0  0  0
  1 35  1  0  0  0  0
  2  3  1  0  0  0  0
  3  4  1  0  0  0  0
  3 30  2  0  0  0  0
  4  5  2  0  0  0  0
  4 36  1  0  0  0  0
  5  6  1  0  0  0  0
  5 28  1  0  0  0  0
  6  7  2  0  0  0  0
  7  8  1  0  0  0  0
  7 37  1  0  0  0  0
  8  9  2  0  0  0  0
  8 38  1  0  0  0  0
  9 10  1  0  0  0  0
  9 28  1  0  0  0  0
 10 11  1  0  0  0  0
 11 12  1  0  0  0  0
 11 27  2  0  0  0  0
 12 13  2  0  0  0  0
 12 39  1  0  0  0  0
 13 14  1  0  0  0  0
 13 40  1  0  0  0  0
 14 15  1  0  0  0  0
 14 26  2  0  0  0  0
 15 16  1  0  0  0  0
 15 41  1  0  0  0  0
 16 17  2  0  0  0  0
 16 18  1  0  0  0  0
 18 19  1  0  0  0  0
 18 42  1  0  0  0  0
 19 20  1  0  0  0  0
 19 25  2  0  0  0  0
 20 21  2  0  0  0  0
 20 43  1  0  0  0  0
 21 22  1  0  0  0  0
 21 44  1  0  0  0  0
 22 23  1  0  0  0  0
 22 24  2  0  0  0  0
 23 45  1  0  0  0  0
 23 46  1  0  0  0  0
 23 47  1  0  0  0  0
 24 25  1  0  0  0  0
 24 48  1  0  0  0  0
 25 49  1  0  0  0  0
 26 27  1  0  0  0  0
 26 50  1  0  0  0  0
 27 51  1  0  0  0  0
 28 29  2  0  0  0  0
 29 30  1  0  0  0  0
 29 52  1  0  0  0  0
 30 31  1  0  0  0  0
 31 32  1  0  0  0  0
 32 53  1  0  0  0  0
 32 54  1  0  0  0  0
 32 55  1  0  0  0  0
M  END
$$$$
