CHEMBL1645476
 OpenBabel04072215363D

 46 49  0  0  0  0  0  0  0  0999 V2000
    0.0271   -1.0050   -0.6958 N   0  0  0  0  0  0  0  0  0  0  0  0
    1.4144   -0.5873   -0.4944 C   0  0  0  0  0  0  0  0  0  0  0  0
    1.7876    0.4767   -1.5182 C   0  0  0  0  0  0  0  0  0  0  0  0
    2.0124   -0.0862   -2.9203 C   0  0  0  0  0  0  0  0  0  0  0  0
    3.0611   -1.1133   -2.9622 N   0  0  0  0  0  0  0  0  0  0  0  0
    4.4348   -0.6175   -2.7458 C   0  0  0  0  0  0  0  0  0  0  0  0
    4.8672    0.3624   -3.8138 C   0  0  0  0  0  0  0  0  0  0  0  0
    5.4710   -0.0418   -5.0559 C   0  0  0  0  0  0  0  0  0  0  0  0
    5.6787    1.0818   -5.8201 C   0  0  0  0  0  0  0  0  0  0  0  0
    5.1865    2.1481   -5.1310 N   0  0  0  0  0  0  0  0  0  0  0  0
    5.0625    3.3877   -5.6329 N   0  0  0  0  0  0  0  0  0  0  0  0
    4.5784    4.2430   -4.7960 C   0  0  0  0  0  0  0  0  0  0  0  0
    4.2782    4.0159   -3.4823 N   0  0  0  0  0  0  0  0  0  0  0  0
    4.4283    2.8274   -2.9701 C   0  0  0  0  0  0  0  0  0  0  0  0
    4.2931    2.6584   -1.6120 N   0  0  0  0  0  0  0  0  0  0  0  0
    3.4888    3.4219   -0.7433 C   0  0  0  0  0  0  0  0  0  0  0  0
    2.3024    4.0390   -1.1697 C   0  0  0  0  0  0  0  0  0  0  0  0
    1.5153    4.7812   -0.2837 C   0  0  0  0  0  0  0  0  0  0  0  0
    1.9358    4.9476    1.0297 C   0  0  0  0  0  0  0  0  0  0  0  0
    1.1791    5.6780    1.8619 F   0  0  0  0  0  0  0  0  0  0  0  0
    3.1213    4.3651    1.4669 C   0  0  0  0  0  0  0  0  0  0  0  0
    3.6505    4.5694    3.0937 Cl  0  0  0  0  0  0  0  0  0  0  0  0
    3.8933    3.5993    0.5868 C   0  0  0  0  0  0  0  0  0  0  0  0
    4.8251    1.7637   -3.8690 C   0  0  0  0  0  0  0  0  0  0  0  0
    2.6812   -2.2005   -2.0317 C   0  0  0  0  0  0  0  0  0  0  0  0
    2.4138   -1.7484   -0.5862 C   0  0  0  0  0  0  0  0  0  0  0  0
   -0.5665   -0.1802   -0.7859 H   0  0  0  0  0  0  0  0  0  0  0  0
   -0.3086   -1.4896    0.1373 H   0  0  0  0  0  0  0  0  0  0  0  0
    1.4790   -0.1443    0.5077 H   0  0  0  0  0  0  0  0  0  0  0  0
    2.7091    0.9222   -1.1588 H   0  0  0  0  0  0  0  0  0  0  0  0
    1.0408    1.2779   -1.5506 H   0  0  0  0  0  0  0  0  0  0  0  0
    2.2245    0.7265   -3.6225 H   0  0  0  0  0  0  0  0  0  0  0  0
    1.0753   -0.5262   -3.2889 H   0  0  0  0  0  0  0  0  0  0  0  0
    5.1162   -1.4785   -2.8118 H   0  0  0  0  0  0  0  0  0  0  0  0
    4.5818   -0.1944   -1.7507 H   0  0  0  0  0  0  0  0  0  0  0  0
    5.7082   -1.0535   -5.3579 H   0  0  0  0  0  0  0  0  0  0  0  0
    6.0869    1.2127   -6.8090 H   0  0  0  0  0  0  0  0  0  0  0  0
    4.4147    5.2754   -5.1468 H   0  0  0  0  0  0  0  0  0  0  0  0
    4.7455    1.8583   -1.1958 H   0  0  0  0  0  0  0  0  0  0  0  0
    1.9518    3.9119   -2.1927 H   0  0  0  0  0  0  0  0  0  0  0  0
    0.5818    5.2274   -0.6120 H   0  0  0  0  0  0  0  0  0  0  0  0
    4.8217    3.1569    0.9387 H   0  0  0  0  0  0  0  0  0  0  0  0
    3.4466   -2.9859   -2.0355 H   0  0  0  0  0  0  0  0  0  0  0  0
    1.7738   -2.6837   -2.4168 H   0  0  0  0  0  0  0  0  0  0  0  0
    3.3627   -1.4304   -0.1336 H   0  0  0  0  0  0  0  0  0  0  0  0
    2.0661   -2.5986    0.0142 H   0  0  0  0  0  0  0  0  0  0  0  0
  1  2  1  0  0  0  0
  1 27  1  0  0  0  0
  1 28  1  0  0  0  0
  2  3  1  0  0  0  0
  2 26  1  0  0  0  0
  2 29  1  0  0  0  0
  3  4  1  0  0  0  0
  3 30  1  0  0  0  0
  3 31  1  0  0  0  0
  4  5  1  0  0  0  0
  4 32  1  0  0  0  0
  4 33  1  0  0  0  0
  5  6  1  0  0  0  0
  5 25  1  0  0  0  0
  6  7  1  0  0  0  0
  6 34  1  0  0  0  0
  6 35  1  0  0  0  0
  7  8  1  0  0  0  0
  7 24  2  0  0  0  0
  8  9  2  0  0  0  0
  8 36  1  0  0  0  0
  9 10  1  0  0  0  0
  9 37  1  0  0  0  0
 10 11  1  0  0  0  0
 10 24  1  0  0  0  0
 11 12  2  0  0  0  0
 12 13  1  0  0  0  0
 12 38  1  0  0  0  0
 13 14  2  0  0  0  0
 14 15  1  0  0  0  0
 14 24  1  0  0  0  0
 15 16  1  0  0  0  0
 15 39  1  0  0  0  0
 16 17  1  0  0  0  0
 16 23  2  0  0  0  0
 17 18  2  0  0  0  0
 17 40  1  0  0  0  0
 18 19  1  0  0  0  0
 18 41  1  0  0  0  0
 19 20  1  0  0  0  0
 19 21  2  0  0  0  0
 21 22  1  0  0  0  0
 21 23  1  0  0  0  0
 23 42  1  0  0  0  0
 25 26  1  0  0  0  0
 25 43  1  0  0  0  0
 25 44  1  0  0  0  0
 26 45  1  0  0  0  0
 26 46  1  0  0  0  0
M  END
$$$$
