CHEMBL1084633
 OpenBabel04072215363D

 59 62  0  0  0  0  0  0  0  0999 V2000
    3.3561    4.6920  -10.6554 C   0  0  0  0  0  0  0  0  0  0  0  0
    2.9816    5.6948   -9.6879 N   0  0  0  0  0  0  0  0  0  0  0  0
    3.2900    5.4313   -8.3632 C   0  0  0  0  0  0  0  0  0  0  0  0
    3.4933    6.5086   -7.6029 N   0  0  0  0  0  0  0  0  0  0  0  0
    3.8397    6.2898   -6.3226 C   0  0  0  0  0  0  0  0  0  0  0  0
    4.0113    5.0399   -5.7764 C   0  0  0  0  0  0  0  0  0  0  0  0
    3.7881    3.9739   -6.6182 C   0  0  0  0  0  0  0  0  0  0  0  0
    4.0060    2.5545   -6.2557 C   0  0  0  0  0  0  0  0  0  0  0  0
    4.4001    1.6605   -7.2808 C   0  0  0  0  0  0  0  0  0  0  0  0
    4.6290    0.3102   -7.0373 C   0  0  0  0  0  0  0  0  0  0  0  0
    4.4194   -0.1504   -5.7602 C   0  0  0  0  0  0  0  0  0  0  0  0
    4.0315    0.6446   -4.7463 N   0  0  0  0  0  0  0  0  0  0  0  0
    3.8809    1.9806   -4.9794 C   0  0  0  0  0  0  0  0  0  0  0  0
    3.6024    2.7872   -3.8661 O   0  0  0  0  0  0  0  0  0  0  0  0
    3.9845    2.3067   -2.6134 C   0  0  0  0  0  0  0  0  0  0  0  0
    5.2166    1.6812   -2.4443 C   0  0  0  0  0  0  0  0  0  0  0  0
    5.5189    1.0368   -1.2534 C   0  0  0  0  0  0  0  0  0  0  0  0
    4.6213    1.0160   -0.1821 C   0  0  0  0  0  0  0  0  0  0  0  0
    4.8548    0.1261    0.9198 N   0  0  0  0  0  0  0  0  0  0  0  0
    5.6412   -1.0181    0.8290 C   0  0  0  0  0  0  0  0  0  0  0  0
    6.2564   -1.3766   -0.1628 O   0  0  0  0  0  0  0  0  0  0  0  0
    5.6858   -1.7562    1.9981 N   0  0  0  0  0  0  0  0  0  0  0  0
    6.4347   -3.0327    2.0827 C   0  0  0  0  0  0  0  0  0  0  0  0
    7.9373   -2.8236    1.7970 C   0  0  0  0  0  0  0  0  0  0  0  0
    6.3143   -3.6028    3.5095 C   0  0  0  0  0  0  0  0  0  0  0  0
    5.8635   -4.0816    1.1097 C   0  0  0  0  0  0  0  0  0  0  0  0
    3.4763    1.8683   -0.2409 C   0  0  0  0  0  0  0  0  0  0  0  0
    2.6271    2.1274    0.8664 C   0  0  0  0  0  0  0  0  0  0  0  0
    1.5205    2.9774    0.7689 C   0  0  0  0  0  0  0  0  0  0  0  0
    1.2073    3.5717   -0.4443 C   0  0  0  0  0  0  0  0  0  0  0  0
    2.0055    3.3265   -1.5617 C   0  0  0  0  0  0  0  0  0  0  0  0
    3.1505    2.5046   -1.4872 C   0  0  0  0  0  0  0  0  0  0  0  0
    3.4193    4.1773   -7.9138 N   0  0  0  0  0  0  0  0  0  0  0  0
    3.4715    5.1654  -11.6374 H   0  0  0  0  0  0  0  0  0  0  0  0
    2.5695    3.9354  -10.7495 H   0  0  0  0  0  0  0  0  0  0  0  0
    4.3063    4.2001  -10.4208 H   0  0  0  0  0  0  0  0  0  0  0  0
    3.3025    6.6381   -9.8723 H   0  0  0  0  0  0  0  0  0  0  0  0
    4.0005    7.1861   -5.7312 H   0  0  0  0  0  0  0  0  0  0  0  0
    4.3383    4.9343   -4.7528 H   0  0  0  0  0  0  0  0  0  0  0  0
    4.5460    2.0287   -8.2959 H   0  0  0  0  0  0  0  0  0  0  0  0
    4.9547   -0.3555   -7.8281 H   0  0  0  0  0  0  0  0  0  0  0  0
    4.5745   -1.1936   -5.5012 H   0  0  0  0  0  0  0  0  0  0  0  0
    5.9273    1.6041   -3.2627 H   0  0  0  0  0  0  0  0  0  0  0  0
    6.4701    0.5171   -1.2104 H   0  0  0  0  0  0  0  0  0  0  0  0
    4.2153    0.1692    1.6947 H   0  0  0  0  0  0  0  0  0  0  0  0
    4.9318   -1.6208    2.6566 H   0  0  0  0  0  0  0  0  0  0  0  0
    8.3633   -2.0676    2.4655 H   0  0  0  0  0  0  0  0  0  0  0  0
    8.1280   -2.4952    0.7712 H   0  0  0  0  0  0  0  0  0  0  0  0
    8.5004   -3.7543    1.9369 H   0  0  0  0  0  0  0  0  0  0  0  0
    6.7442   -2.9196    4.2510 H   0  0  0  0  0  0  0  0  0  0  0  0
    6.8400   -4.5619    3.5972 H   0  0  0  0  0  0  0  0  0  0  0  0
    5.2670   -3.7735    3.7828 H   0  0  0  0  0  0  0  0  0  0  0  0
    5.9730   -3.7818    0.0631 H   0  0  0  0  0  0  0  0  0  0  0  0
    4.7956   -4.2460    1.2920 H   0  0  0  0  0  0  0  0  0  0  0  0
    6.3767   -5.0439    1.2190 H   0  0  0  0  0  0  0  0  0  0  0  0
    2.8385    1.7052    1.8441 H   0  0  0  0  0  0  0  0  0  0  0  0
    0.9078    3.1791    1.6448 H   0  0  0  0  0  0  0  0  0  0  0  0
    0.3486    4.2334   -0.5246 H   0  0  0  0  0  0  0  0  0  0  0  0
    1.7396    3.8119   -2.4986 H   0  0  0  0  0  0  0  0  0  0  0  0
  1  2  1  0  0  0  0
  1 34  1  0  0  0  0
  1 35  1  0  0  0  0
  1 36  1  0  0  0  0
  2  3  1  0  0  0  0
  2 37  1  0  0  0  0
  3  4  1  0  0  0  0
  3 33  2  0  0  0  0
  4  5  2  0  0  0  0
  5  6  1  0  0  0  0
  5 38  1  0  0  0  0
  6  7  2  0  0  0  0
  6 39  1  0  0  0  0
  7  8  1  0  0  0  0
  7 33  1  0  0  0  0
  8  9  1  0  0  0  0
  8 13  2  0  0  0  0
  9 10  2  0  0  0  0
  9 40  1  0  0  0  0
 10 11  1  0  0  0  0
 10 41  1  0  0  0  0
 11 12  2  0  0  0  0
 11 42  1  0  0  0  0
 12 13  1  0  0  0  0
 13 14  1  0  0  0  0
 14 15  1  0  0  0  0
 15 16  1  0  0  0  0
 15 32  2  0  0  0  0
 16 17  2  0  0  0  0
 16 43  1  0  0  0  0
 17 18  1  0  0  0  0
 17 44  1  0  0  0  0
 18 19  1  0  0  0  0
 18 27  2  0  0  0  0
 19 20  1  0  0  0  0
 19 45  1  0  0  0  0
 20 21  2  0  0  0  0
 20 22  1  0  0  0  0
 22 23  1  0  0  0  0
 22 46  1  0  0  0  0
 23 24  1  0  0  0  0
 23 25  1  0  0  0  0
 23 26  1  0  0  0  0
 24 47  1  0  0  0  0
 24 48  1  0  0  0  0
 24 49  1  0  0  0  0
 25 50  1  0  0  0  0
 25 51  1  0  0  0  0
 25 52  1  0  0  0  0
 26 53  1  0  0  0  0
 26 54  1  0  0  0  0
 26 55  1  0  0  0  0
 27 28  1  0  0  0  0
 27 32  1  0  0  0  0
 28 29  2  0  0  0  0
 28 56  1  0  0  0  0
 29 30  1  0  0  0  0
 29 57  1  0  0  0  0
 30 31  2  0  0  0  0
 30 58  1  0  0  0  0
 31 32  1  0  0  0  0
 31 59  1  0  0  0  0
M  END
$$$$
