CHEMBL3660270
 OpenBabel04072215373D

 63 66  0  0  0  0  0  0  0  0999 V2000
    2.8432    7.2015    2.6581 C   0  0  0  0  0  0  0  0  0  0  0  0
    1.7290    6.2212    2.4290 C   0  0  0  0  0  0  0  0  0  0  0  0
    2.0241    4.9173    2.0176 C   0  0  0  0  0  0  0  0  0  0  0  0
    0.9988    3.9982    1.8399 C   0  0  0  0  0  0  0  0  0  0  0  0
   -0.3242    4.3781    2.0543 C   0  0  0  0  0  0  0  0  0  0  0  0
   -1.2292    3.3925    2.0000 F   0  0  0  0  0  0  0  0  0  0  0  0
   -0.6659    5.6934    2.4022 C   0  0  0  0  0  0  0  0  0  0  0  0
   -1.9955    6.1761    2.5437 N   0  0  0  0  0  0  0  0  0  0  0  0
   -3.1165    5.5776    2.0022 C   0  0  0  0  0  0  0  0  0  0  0  0
   -3.1130    4.5692    1.2999 O   0  0  0  0  0  0  0  0  0  0  0  0
   -4.2862    6.2809    2.2721 N   0  0  0  0  0  0  0  0  0  0  0  0
   -5.5224    5.7159    1.8655 C   0  0  0  0  0  0  0  0  0  0  0  0
   -5.8306    4.3895    2.1887 C   0  0  0  0  0  0  0  0  0  0  0  0
   -6.9848    3.7879    1.6883 C   0  0  0  0  0  0  0  0  0  0  0  0
   -7.8712    4.5266    0.9035 C   0  0  0  0  0  0  0  0  0  0  0  0
   -9.0306    4.0153    0.3609 O   0  0  0  0  0  0  0  0  0  0  0  0
   -9.7258    3.0429    1.0447 C   0  0  0  0  0  0  0  0  0  0  0  0
   -9.8687    3.0169    2.4279 C   0  0  0  0  0  0  0  0  0  0  0  0
  -10.5675    1.9647    2.9911 C   0  0  0  0  0  0  0  0  0  0  0  0
  -11.1630    0.9875    2.2749 N   0  0  0  0  0  0  0  0  0  0  0  0
  -11.0639    1.0702    0.9268 C   0  0  0  0  0  0  0  0  0  0  0  0
  -11.7707    0.0209    0.2016 C   0  0  0  0  0  0  0  0  0  0  0  0
  -11.9588   -0.1939   -1.1525 C   0  0  0  0  0  0  0  0  0  0  0  0
  -12.7756   -1.3512   -1.3351 C   0  0  0  0  0  0  0  0  0  0  0  0
  -13.2721   -1.9610   -2.5663 C   0  0  0  0  0  0  0  0  0  0  0  0
  -13.9847   -2.9604   -2.5747 O   0  0  0  0  0  0  0  0  0  0  0  0
  -12.8494   -1.3456   -3.7261 N   0  0  0  0  0  0  0  0  0  0  0  0
  -13.2042   -1.8434   -5.0378 C   0  0  0  0  0  0  0  0  0  0  0  0
  -12.1868   -2.8409   -5.5865 C   0  0  0  0  0  0  0  0  0  0  0  0
  -12.0397   -4.1112   -4.7566 C   0  0  0  0  0  0  0  0  0  0  0  0
  -13.2895   -4.7695   -4.6174 O   0  0  0  0  0  0  0  0  0  0  0  0
  -13.0347   -1.8262   -0.0598 C   0  0  0  0  0  0  0  0  0  0  0  0
  -12.4316   -0.9995    0.8507 N   0  0  0  0  0  0  0  0  0  0  0  0
  -10.3607    2.0758    0.2763 C   0  0  0  0  0  0  0  0  0  0  0  0
   -7.5630    5.8508    0.5762 C   0  0  0  0  0  0  0  0  0  0  0  0
   -6.4029    6.4562    1.0767 C   0  0  0  0  0  0  0  0  0  0  0  0
    0.3846    6.6021    2.6214 C   0  0  0  0  0  0  0  0  0  0  0  0
    3.8213    6.7398    2.4780 H   0  0  0  0  0  0  0  0  0  0  0  0
    2.8299    7.5534    3.6940 H   0  0  0  0  0  0  0  0  0  0  0  0
    2.7468    8.0533    1.9788 H   0  0  0  0  0  0  0  0  0  0  0  0
    3.0513    4.6027    1.8496 H   0  0  0  0  0  0  0  0  0  0  0  0
    1.2117    2.9739    1.5518 H   0  0  0  0  0  0  0  0  0  0  0  0
   -2.1158    7.0934    2.9474 H   0  0  0  0  0  0  0  0  0  0  0  0
   -4.2006    7.2808    2.1643 H   0  0  0  0  0  0  0  0  0  0  0  0
   -5.1561    3.8018    2.8080 H   0  0  0  0  0  0  0  0  0  0  0  0
   -7.1613    2.7397    1.9111 H   0  0  0  0  0  0  0  0  0  0  0  0
   -9.4305    3.7792    3.0633 H   0  0  0  0  0  0  0  0  0  0  0  0
  -10.6665    1.8785    4.0696 H   0  0  0  0  0  0  0  0  0  0  0  0
  -11.5574    0.4399   -1.9294 H   0  0  0  0  0  0  0  0  0  0  0  0
  -12.2117   -0.5672   -3.6707 H   0  0  0  0  0  0  0  0  0  0  0  0
  -13.2481   -0.9697   -5.6999 H   0  0  0  0  0  0  0  0  0  0  0  0
  -14.2069   -2.2793   -5.0054 H   0  0  0  0  0  0  0  0  0  0  0  0
  -11.2062   -2.3598   -5.6792 H   0  0  0  0  0  0  0  0  0  0  0  0
  -12.5106   -3.1198   -6.5970 H   0  0  0  0  0  0  0  0  0  0  0  0
  -11.6267   -3.9061   -3.7637 H   0  0  0  0  0  0  0  0  0  0  0  0
  -11.3502   -4.7992   -5.2555 H   0  0  0  0  0  0  0  0  0  0  0  0
  -13.7679   -4.3090   -3.8923 H   0  0  0  0  0  0  0  0  0  0  0  0
  -13.6081   -2.6842    0.2679 H   0  0  0  0  0  0  0  0  0  0  0  0
  -12.4596   -1.0912    1.8592 H   0  0  0  0  0  0  0  0  0  0  0  0
  -10.2986    2.1158   -0.8049 H   0  0  0  0  0  0  0  0  0  0  0  0
   -8.2159    6.4063   -0.0923 H   0  0  0  0  0  0  0  0  0  0  0  0
   -6.1669    7.4730    0.7780 H   0  0  0  0  0  0  0  0  0  0  0  0
    0.1707    7.6259    2.9201 H   0  0  0  0  0  0  0  0  0  0  0  0
  1  2  1  0  0  0  0
  1 38  1  0  0  0  0
  1 39  1  0  0  0  0
  1 40  1  0  0  0  0
  2  3  1  0  0  0  0
  2 37  2  0  0  0  0
  3  4  2  0  0  0  0
  3 41  1  0  0  0  0
  4  5  1  0  0  0  0
  4 42  1  0  0  0  0
  5  6  1  0  0  0  0
  5  7  2  0  0  0  0
  7  8  1  0  0  0  0
  7 37  1  0  0  0  0
  8  9  1  0  0  0  0
  8 43  1  0  0  0  0
  9 10  2  0  0  0  0
  9 11  1  0  0  0  0
 11 12  1  0  0  0  0
 11 44  1  0  0  0  0
 12 13  1  0  0  0  0
 12 36  2  0  0  0  0
 13 14  2  0  0  0  0
 13 45  1  0  0  0  0
 14 15  1  0  0  0  0
 14 46  1  0  0  0  0
 15 16  1  0  0  0  0
 15 35  2  0  0  0  0
 16 17  1  0  0  0  0
 17 18  1  0  0  0  0
 17 34  2  0  0  0  0
 18 19  2  0  0  0  0
 18 47  1  0  0  0  0
 19 20  1  0  0  0  0
 19 48  1  0  0  0  0
 20 21  2  0  0  0  0
 21 22  1  0  0  0  0
 21 34  1  0  0  0  0
 22 23  2  0  0  0  0
 22 33  1  0  0  0  0
 23 24  1  0  0  0  0
 23 49  1  0  0  0  0
 24 25  1  0  0  0  0
 24 32  2  0  0  0  0
 25 26  2  0  0  0  0
 25 27  1  0  0  0  0
 27 28  1  0  0  0  0
 27 50  1  0  0  0  0
 28 29  1  0  0  0  0
 28 51  1  0  0  0  0
 28 52  1  0  0  0  0
 29 30  1  0  0  0  0
 29 53  1  0  0  0  0
 29 54  1  0  0  0  0
 30 31  1  0  0  0  0
 30 55  1  0  0  0  0
 30 56  1  0  0  0  0
 31 57  1  0  0  0  0
 32 33  1  0  0  0  0
 32 58  1  0  0  0  0
 33 59  1  0  0  0  0
 34 60  1  0  0  0  0
 35 36  1  0  0  0  0
 35 61  1  0  0  0  0
 36 62  1  0  0  0  0
 37 63  1  0  0  0  0
M  END
$$$$
