CHEMBL219886
 OpenBabel04072215363D

 35 37  0  0  0  0  0  0  0  0999 V2000
    1.0980   -0.5854    0.6078 C   0  0  0  0  0  0  0  0  0  0  0  0
    2.4717   -0.3590    0.2990 O   0  0  0  0  0  0  0  0  0  0  0  0
    3.0162    0.4326    1.3169 N   0  0  0  0  0  0  0  0  0  0  0  0
    4.2781    0.6415    1.0950 C   0  0  0  0  0  0  0  0  0  0  0  0
    5.0873    1.4275    2.0415 C   0  0  0  0  0  0  0  0  0  0  0  0
    4.7197    1.5725    3.3764 C   0  0  0  0  0  0  0  0  0  0  0  0
    3.6601    0.8715    3.9497 N   0  0  0  0  0  0  0  0  0  0  0  0
    5.4311    2.2989    4.2552 N   0  0  0  0  0  0  0  0  0  0  0  0
    6.5154    2.9151    3.7808 C   0  0  0  0  0  0  0  0  0  0  0  0
    6.9504    2.8610    2.5215 N   0  0  0  0  0  0  0  0  0  0  0  0
    6.2462    2.0813    1.6678 C   0  0  0  0  0  0  0  0  0  0  0  0
    6.7239    1.9562    0.3590 O   0  0  0  0  0  0  0  0  0  0  0  0
    8.0558    2.2795    0.1543 C   0  0  0  0  0  0  0  0  0  0  0  0
    9.0663    1.7852    0.9802 C   0  0  0  0  0  0  0  0  0  0  0  0
   10.3692    2.2394    0.8303 C   0  0  0  0  0  0  0  0  0  0  0  0
   10.6852    3.1414   -0.1913 C   0  0  0  0  0  0  0  0  0  0  0  0
   11.9851    3.6459   -0.3266 C   0  0  0  0  0  0  0  0  0  0  0  0
   12.2816    4.5172   -1.3641 C   0  0  0  0  0  0  0  0  0  0  0  0
   11.2623    4.8499   -2.2349 C   0  0  0  0  0  0  0  0  0  0  0  0
    9.9878    4.4023   -2.1211 N   0  0  0  0  0  0  0  0  0  0  0  0
    9.6935    3.5684   -1.1046 C   0  0  0  0  0  0  0  0  0  0  0  0
    8.3847    3.1263   -0.9112 C   0  0  0  0  0  0  0  0  0  0  0  0
    0.6520   -1.1840   -0.1904 H   0  0  0  0  0  0  0  0  0  0  0  0
    0.5638    0.3680    0.6746 H   0  0  0  0  0  0  0  0  0  0  0  0
    1.0038   -1.1312    1.5528 H   0  0  0  0  0  0  0  0  0  0  0  0
    4.7727    0.2463    0.1907 H   0  0  0  0  0  0  0  0  0  0  0  0
    2.8442    0.8547    3.3370 H   0  0  0  0  0  0  0  0  0  0  0  0
    3.4826    1.2212    4.8846 H   0  0  0  0  0  0  0  0  0  0  0  0
    7.1056    3.4934    4.4826 H   0  0  0  0  0  0  0  0  0  0  0  0
    8.8330    1.0929    1.7861 H   0  0  0  0  0  0  0  0  0  0  0  0
   11.1292    1.9019    1.5308 H   0  0  0  0  0  0  0  0  0  0  0  0
   12.7654    3.3659    0.3771 H   0  0  0  0  0  0  0  0  0  0  0  0
   13.2803    4.9212   -1.4881 H   0  0  0  0  0  0  0  0  0  0  0  0
   11.4474    5.5137   -3.0755 H   0  0  0  0  0  0  0  0  0  0  0  0
    7.6115    3.4794   -1.5876 H   0  0  0  0  0  0  0  0  0  0  0  0
  1  2  1  0  0  0  0
  1 23  1  0  0  0  0
  1 24  1  0  0  0  0
  1 25  1  0  0  0  0
  2  3  1  0  0  0  0
  3  4  2  0  0  0  0
  4  5  1  0  0  0  0
  4 26  1  0  0  0  0
  5  6  1  0  0  0  0
  5 11  2  0  0  0  0
  6  7  1  0  0  0  0
  6  8  2  0  0  0  0
  7 27  1  0  0  0  0
  7 28  1  0  0  0  0
  8  9  1  0  0  0  0
  9 10  2  0  0  0  0
  9 29  1  0  0  0  0
 10 11  1  0  0  0  0
 11 12  1  0  0  0  0
 12 13  1  0  0  0  0
 13 14  1  0  0  0  0
 13 22  2  0  0  0  0
 14 15  2  0  0  0  0
 14 30  1  0  0  0  0
 15 16  1  0  0  0  0
 15 31  1  0  0  0  0
 16 17  1  0  0  0  0
 16 21  2  0  0  0  0
 17 18  2  0  0  0  0
 17 32  1  0  0  0  0
 18 19  1  0  0  0  0
 18 33  1  0  0  0  0
 19 20  2  0  0  0  0
 19 34  1  0  0  0  0
 20 21  1  0  0  0  0
 21 22  1  0  0  0  0
 22 35  1  0  0  0  0
M  END
$$$$
