CHEMBL419526
 OpenBabel04072215383D

 29 31  0  0  0  0  0  0  0  0999 V2000
    1.3914    0.0038   -0.1143 C   0  0  0  0  0  0  0  0  0  0  0  0
    0.6195   -0.6334    0.8510 C   0  0  0  0  0  0  0  0  0  0  0  0
   -0.7668   -0.4787    0.8402 C   0  0  0  0  0  0  0  0  0  0  0  0
   -1.4012    0.3169   -0.1298 C   0  0  0  0  0  0  0  0  0  0  0  0
   -2.8452    0.4828   -0.0818 C   0  0  0  0  0  0  0  0  0  0  0  0
   -3.8180    0.0726    0.7972 C   0  0  0  0  0  0  0  0  0  0  0  0
   -5.0395    0.4960    0.3731 N   0  0  0  0  0  0  0  0  0  0  0  0
   -4.8029    1.1322   -0.7542 C   0  0  0  0  0  0  0  0  0  0  0  0
   -5.6640    1.6723   -1.6301 N   0  0  0  0  0  0  0  0  0  0  0  0
   -7.0046    1.2893   -1.7417 C   0  0  0  0  0  0  0  0  0  0  0  0
   -7.7308    0.7446   -0.6800 C   0  0  0  0  0  0  0  0  0  0  0  0
   -9.0147    0.2493   -0.8918 C   0  0  0  0  0  0  0  0  0  0  0  0
   -9.5732    0.3535   -2.1521 C   0  0  0  0  0  0  0  0  0  0  0  0
   -8.8247    0.9697   -3.1395 C   0  0  0  0  0  0  0  0  0  0  0  0
   -7.5645    1.4365   -2.9630 N   0  0  0  0  0  0  0  0  0  0  0  0
   -3.4708    1.1836   -1.0863 O   0  0  0  0  0  0  0  0  0  0  0  0
   -0.6134    0.9377   -1.1049 C   0  0  0  0  0  0  0  0  0  0  0  0
    0.7773    0.7818   -1.0934 C   0  0  0  0  0  0  0  0  0  0  0  0
    2.4724   -0.1059   -0.1023 H   0  0  0  0  0  0  0  0  0  0  0  0
    1.0909   -1.2457    1.6151 H   0  0  0  0  0  0  0  0  0  0  0  0
   -1.3444   -0.9899    1.6071 H   0  0  0  0  0  0  0  0  0  0  0  0
   -3.7088   -0.5038    1.7018 H   0  0  0  0  0  0  0  0  0  0  0  0
   -5.3149    1.9828   -2.5261 H   0  0  0  0  0  0  0  0  0  0  0  0
   -7.3115    0.6712    0.3145 H   0  0  0  0  0  0  0  0  0  0  0  0
   -9.5515   -0.2216   -0.0740 H   0  0  0  0  0  0  0  0  0  0  0  0
  -10.5649   -0.0315   -2.3555 H   0  0  0  0  0  0  0  0  0  0  0  0
   -9.2283    1.0982   -4.1396 H   0  0  0  0  0  0  0  0  0  0  0  0
   -1.0681    1.5532   -1.8767 H   0  0  0  0  0  0  0  0  0  0  0  0
    1.3820    1.2747   -1.8498 H   0  0  0  0  0  0  0  0  0  0  0  0
  1  2  1  0  0  0  0
  1 18  2  0  0  0  0
  1 19  1  0  0  0  0
  2  3  2  0  0  0  0
  2 20  1  0  0  0  0
  3  4  1  0  0  0  0
  3 21  1  0  0  0  0
  4  5  1  0  0  0  0
  4 17  2  0  0  0  0
  5  6  2  0  0  0  0
  5 16  1  0  0  0  0
  6  7  1  0  0  0  0
  6 22  1  0  0  0  0
  7  8  2  0  0  0  0
  8  9  1  0  0  0  0
  8 16  1  0  0  0  0
  9 10  1  0  0  0  0
  9 23  1  0  0  0  0
 10 11  1  0  0  0  0
 10 15  2  0  0  0  0
 11 12  2  0  0  0  0
 11 24  1  0  0  0  0
 12 13  1  0  0  0  0
 12 25  1  0  0  0  0
 13 14  2  0  0  0  0
 13 26  1  0  0  0  0
 14 15  1  0  0  0  0
 14 27  1  0  0  0  0
 17 18  1  0  0  0  0
 17 28  1  0  0  0  0
 18 29  1  0  0  0  0
M  END
$$$$
