CHEMBL3942811
 OpenBabel04072215373D

 64 68  0  0  1  0  0  0  0  0999 V2000
    2.0629    1.2259   -0.9381 C   0  0  0  0  0  0  0  0  0  0  0  0
    3.3978    0.7373   -0.7918 O   0  0  0  0  0  0  0  0  0  0  0  0
    3.5412   -0.6125   -0.9806 C   0  0  0  0  0  0  0  0  0  0  0  0
    2.7133   -1.3695   -1.7972 C   0  0  0  0  0  0  0  0  0  0  0  0
    2.9206   -2.7286   -1.8589 C   0  0  0  0  0  0  0  0  0  0  0  0
    2.1212   -3.4852   -2.6244 F   0  0  0  0  0  0  0  0  0  0  0  0
    3.9250   -3.3421   -1.1136 C   0  0  0  0  0  0  0  0  0  0  0  0
    4.8508   -2.6215   -0.3472 C   0  0  0  0  0  0  0  0  0  0  0  0
    5.9137   -3.2001    0.3991 N   0  0  0  0  0  0  0  0  0  0  0  0
    6.7056   -4.4152   -0.0355 C   0  0  0  0  0  0  0  0  0  0  0  0
    6.2872   -5.0603   -1.3395 C   0  0  0  0  0  0  0  0  0  0  0  0
    7.0681   -6.2528   -1.8831 C   0  0  0  0  0  0  0  0  0  0  0  0
    6.4638   -6.5998   -3.1789 N   0  0  0  0  0  0  0  0  0  0  0  0
    5.0303   -6.9217   -3.1466 C   0  0  0  0  0  0  0  0  0  0  0  0
    4.7675   -7.8357   -4.3336 C   0  0  0  0  0  0  0  0  0  0  0  0
    6.1197   -8.0018   -4.9994 C   0  0  3  0  0  0  0  0  0  0  0  0
    6.2538   -7.0929   -6.2103 C   0  0  0  0  0  0  0  0  0  0  0  0
    6.3651   -6.3389   -7.2149 N   0  0  0  0  0  0  0  0  0  0  0  0
    7.1326   -7.6625   -3.9130 C   0  0  0  0  0  0  0  0  0  0  0  0
    6.2771   -2.7840    1.7259 C   0  0  0  0  0  0  0  0  0  0  0  0
    7.5931   -2.8605    2.2046 C   0  0  0  0  0  0  0  0  0  0  0  0
    7.9059   -2.5309    3.5262 C   0  0  0  0  0  0  0  0  0  0  0  0
    6.9342   -2.0995    4.4064 C   0  0  0  0  0  0  0  0  0  0  0  0
    7.2818   -1.8302    5.6743 N   0  0  0  0  0  0  0  0  0  0  0  0
    6.2874   -1.4015    6.4840 C   0  0  0  0  0  0  0  0  0  0  0  0
    4.9817   -1.2270    6.0499 C   0  0  0  0  0  0  0  0  0  0  0  0
    3.9534   -0.7172    6.9295 C   0  0  0  0  0  0  0  0  0  0  0  0
    4.0065   -0.3192    8.2887 C   0  0  0  0  0  0  0  0  0  0  0  0
    2.8343    0.1191    8.7491 N   0  0  0  0  0  0  0  0  0  0  0  0
    2.0202    0.0126    7.6883 N   0  0  0  0  0  0  0  0  0  0  0  0
    0.6395    0.4271    7.7908 C   0  0  0  0  0  0  0  0  0  0  0  0
    2.6322   -0.4934    6.5790 C   0  0  0  0  0  0  0  0  0  0  0  0
    4.6264   -1.5188    4.7705 N   0  0  0  0  0  0  0  0  0  0  0  0
    5.6040   -1.9564    3.9437 C   0  0  0  0  0  0  0  0  0  0  0  0
    5.3066   -2.3030    2.6253 C   0  0  0  0  0  0  0  0  0  0  0  0
    4.6181   -1.2271   -0.3063 C   0  0  0  0  0  0  0  0  0  0  0  0
    2.0596    2.2857   -0.6709 H   0  0  0  0  0  0  0  0  0  0  0  0
    1.3804    0.7053   -0.2615 H   0  0  0  0  0  0  0  0  0  0  0  0
    1.7189    1.1548   -1.9772 H   0  0  0  0  0  0  0  0  0  0  0  0
    1.9048   -0.9510   -2.3814 H   0  0  0  0  0  0  0  0  0  0  0  0
    3.8865   -4.4153   -1.1527 H   0  0  0  0  0  0  0  0  0  0  0  0
    6.6356   -5.1735    0.7574 H   0  0  0  0  0  0  0  0  0  0  0  0
    7.7613   -4.1432   -0.1420 H   0  0  0  0  0  0  0  0  0  0  0  0
    6.2431   -4.2918   -2.1203 H   0  0  0  0  0  0  0  0  0  0  0  0
    5.3088   -5.4851   -1.1402 H   0  0  0  0  0  0  0  0  0  0  0  0
    7.0155   -7.0984   -1.1850 H   0  0  0  0  0  0  0  0  0  0  0  0
    8.1230   -5.9892   -2.0140 H   0  0  0  0  0  0  0  0  0  0  0  0
    4.4327   -6.0081   -3.2426 H   0  0  0  0  0  0  0  0  0  0  0  0
    4.7345   -7.4353   -2.2241 H   0  0  0  0  0  0  0  0  0  0  0  0
    4.0017   -7.4303   -5.0042 H   0  0  0  0  0  0  0  0  0  0  0  0
    4.4118   -8.8070   -3.9690 H   0  0  0  0  0  0  0  0  0  0  0  0
    6.2572   -9.0322   -5.3478 H   0  0  0  0  0  0  0  0  0  0  0  0
    8.0955   -7.3321   -4.3160 H   0  0  0  0  0  0  0  0  0  0  0  0
    7.2976   -8.5363   -3.2705 H   0  0  0  0  0  0  0  0  0  0  0  0
    8.4160   -3.1596    1.5637 H   0  0  0  0  0  0  0  0  0  0  0  0
    8.9335   -2.6163    3.8721 H   0  0  0  0  0  0  0  0  0  0  0  0
    6.5923   -1.1968    7.5024 H   0  0  0  0  0  0  0  0  0  0  0  0
    4.8520   -0.3176    8.9634 H   0  0  0  0  0  0  0  0  0  0  0  0
    0.4260    0.7290    8.8185 H   0  0  0  0  0  0  0  0  0  0  0  0
    0.0029   -0.4159    7.5099 H   0  0  0  0  0  0  0  0  0  0  0  0
    0.4851    1.2704    7.1127 H   0  0  0  0  0  0  0  0  0  0  0  0
    2.1069   -0.6417    5.6462 H   0  0  0  0  0  0  0  0  0  0  0  0
    4.2691   -2.2202    2.3112 H   0  0  0  0  0  0  0  0  0  0  0  0
    5.2755   -0.5891    0.2819 H   0  0  0  0  0  0  0  0  0  0  0  0
  1  2  1  0  0  0  0
  1 37  1  0  0  0  0
  1 38  1  0  0  0  0
  1 39  1  0  0  0  0
  2  3  1  0  0  0  0
  3  4  1  0  0  0  0
  3 36  2  0  0  0  0
  4  5  2  0  0  0  0
  4 40  1  0  0  0  0
  5  6  1  0  0  0  0
  5  7  1  0  0  0  0
  7  8  2  0  0  0  0
  7 41  1  0  0  0  0
  8  9  1  0  0  0  0
  8 36  1  0  0  0  0
  9 10  1  0  0  0  0
  9 20  1  0  0  0  0
 10 11  1  0  0  0  0
 10 42  1  0  0  0  0
 10 43  1  0  0  0  0
 11 12  1  0  0  0  0
 11 44  1  0  0  0  0
 11 45  1  0  0  0  0
 12 13  1  0  0  0  0
 12 46  1  0  0  0  0
 12 47  1  0  0  0  0
 13 14  1  0  0  0  0
 13 19  1  0  0  0  0
 14 15  1  0  0  0  0
 14 48  1  0  0  0  0
 14 49  1  0  0  0  0
 15 16  1  0  0  0  0
 15 50  1  0  0  0  0
 15 51  1  0  0  0  0
 16 17  1  0  0  0  0
 16 19  1  0  0  0  0
 16 52  1  0  0  0  0
 17 18  3  0  0  0  0
 19 53  1  0  0  0  0
 19 54  1  0  0  0  0
 20 21  1  0  0  0  0
 20 35  2  0  0  0  0
 21 22  2  0  0  0  0
 21 55  1  0  0  0  0
 22 23  1  0  0  0  0
 22 56  1  0  0  0  0
 23 24  1  0  0  0  0
 23 34  2  0  0  0  0
 24 25  2  0  0  0  0
 25 26  1  0  0  0  0
 25 57  1  0  0  0  0
 26 27  1  0  0  0  0
 26 33  2  0  0  0  0
 27 28  1  0  0  0  0
 27 32  2  0  0  0  0
 28 29  2  0  0  0  0
 28 58  1  0  0  0  0
 29 30  1  0  0  0  0
 30 31  1  0  0  0  0
 30 32  1  0  0  0  0
 31 59  1  0  0  0  0
 31 60  1  0  0  0  0
 31 61  1  0  0  0  0
 32 62  1  0  0  0  0
 33 34  1  0  0  0  0
 34 35  1  0  0  0  0
 35 63  1  0  0  0  0
 36 64  1  0  0  0  0
M  END
$$$$
