CHEMBL2018763
 OpenBabel04072215363D

 54 56  0  0  0  0  0  0  0  0999 V2000
    0.6481   -0.3014    2.5112 C   0  0  0  0  0  0  0  0  0  0  0  0
    2.1271   -0.0130    2.7061 C   0  0  0  0  0  0  0  0  0  0  0  0
    2.9624   -0.5904    1.5607 C   0  0  0  0  0  0  0  0  0  0  0  0
    4.4406   -0.2399    1.6766 C   0  0  0  0  0  0  0  0  0  0  0  0
    5.1334   -0.8584    2.7978 N   0  0  0  0  0  0  0  0  0  0  0  0
    6.4918   -0.5977    2.8918 C   0  0  0  0  0  0  0  0  0  0  0  0
    7.0770    0.0389    2.0243 O   0  0  0  0  0  0  0  0  0  0  0  0
    7.0619   -1.1401    4.0256 N   0  0  0  0  0  0  0  0  0  0  0  0
    8.4185   -0.9528    4.4009 C   0  0  0  0  0  0  0  0  0  0  0  0
    9.1832    0.1134    3.9280 C   0  0  0  0  0  0  0  0  0  0  0  0
   10.5429    0.2355    4.2508 C   0  0  0  0  0  0  0  0  0  0  0  0
   11.1939   -0.7095    5.0414 C   0  0  0  0  0  0  0  0  0  0  0  0
   12.5668   -0.6493    5.3986 N   0  0  0  0  0  0  0  0  0  0  0  0
   13.5944    0.2480    4.9850 C   0  0  0  0  0  0  0  0  0  0  0  0
   13.2657    1.3346    4.2631 N   0  0  0  0  0  0  0  0  0  0  0  0
   14.2383    2.1807    3.9242 C   0  0  0  0  0  0  0  0  0  0  0  0
   15.5240    2.0666    4.2528 N   0  0  0  0  0  0  0  0  0  0  0  0
   15.8597    0.9952    4.9683 C   0  0  0  0  0  0  0  0  0  0  0  0
   17.2052    0.8455    5.2746 C   0  0  0  0  0  0  0  0  0  0  0  0
   17.7071   -0.2705    5.9559 C   0  0  0  0  0  0  0  0  0  0  0  0
   19.0474   -0.4597    6.1576 O   0  0  0  0  0  0  0  0  0  0  0  0
   19.8880    0.6881    6.1779 C   0  0  0  0  0  0  0  0  0  0  0  0
   16.8073   -1.2530    6.3809 C   0  0  0  0  0  0  0  0  0  0  0  0
   17.0737   -2.4229    7.0446 O   0  0  0  0  0  0  0  0  0  0  0  0
   18.4299   -2.7966    7.2499 C   0  0  0  0  0  0  0  0  0  0  0  0
   15.4350   -1.0815    6.1260 C   0  0  0  0  0  0  0  0  0  0  0  0
   14.9378    0.0255    5.3865 C   0  0  0  0  0  0  0  0  0  0  0  0
   10.3942   -1.7314    5.5861 C   0  0  0  0  0  0  0  0  0  0  0  0
    9.0242   -1.8519    5.2750 C   0  0  0  0  0  0  0  0  0  0  0  0
    0.0734    0.0971    3.3530 H   0  0  0  0  0  0  0  0  0  0  0  0
    0.4631   -1.3787    2.4520 H   0  0  0  0  0  0  0  0  0  0  0  0
    0.2729    0.1630    1.5935 H   0  0  0  0  0  0  0  0  0  0  0  0
    2.4517   -0.4389    3.6594 H   0  0  0  0  0  0  0  0  0  0  0  0
    2.2773    1.0717    2.7631 H   0  0  0  0  0  0  0  0  0  0  0  0
    2.5904   -0.1814    0.6122 H   0  0  0  0  0  0  0  0  0  0  0  0
    2.8350   -1.6787    1.5120 H   0  0  0  0  0  0  0  0  0  0  0  0
    4.5688    0.8469    1.7540 H   0  0  0  0  0  0  0  0  0  0  0  0
    4.9513   -0.5603    0.7593 H   0  0  0  0  0  0  0  0  0  0  0  0
    4.6509   -0.8879    3.6833 H   0  0  0  0  0  0  0  0  0  0  0  0
    6.5681   -1.9192    4.4399 H   0  0  0  0  0  0  0  0  0  0  0  0
    8.7569    0.8849    3.2924 H   0  0  0  0  0  0  0  0  0  0  0  0
   11.0663    1.0832    3.8253 H   0  0  0  0  0  0  0  0  0  0  0  0
   12.9300   -1.5896    5.4965 H   0  0  0  0  0  0  0  0  0  0  0  0
   13.9590    3.0365    3.3199 H   0  0  0  0  0  0  0  0  0  0  0  0
   17.8693    1.6255    4.9144 H   0  0  0  0  0  0  0  0  0  0  0  0
   20.9026    0.3490    6.4098 H   0  0  0  0  0  0  0  0  0  0  0  0
   19.5756    1.3827    6.9638 H   0  0  0  0  0  0  0  0  0  0  0  0
   19.9317    1.1816    5.2024 H   0  0  0  0  0  0  0  0  0  0  0  0
   18.4354   -3.7824    7.7252 H   0  0  0  0  0  0  0  0  0  0  0  0
   18.9294   -2.1062    7.9370 H   0  0  0  0  0  0  0  0  0  0  0  0
   18.9677   -2.8959    6.3010 H   0  0  0  0  0  0  0  0  0  0  0  0
   14.7574   -1.8475    6.4916 H   0  0  0  0  0  0  0  0  0  0  0  0
   10.8355   -2.4611    6.2615 H   0  0  0  0  0  0  0  0  0  0  0  0
    8.4612   -2.6749    5.7052 H   0  0  0  0  0  0  0  0  0  0  0  0
  1  2  1  0  0  0  0
  1 30  1  0  0  0  0
  1 31  1  0  0  0  0
  1 32  1  0  0  0  0
  2  3  1  0  0  0  0
  2 33  1  0  0  0  0
  2 34  1  0  0  0  0
  3  4  1  0  0  0  0
  3 35  1  0  0  0  0
  3 36  1  0  0  0  0
  4  5  1  0  0  0  0
  4 37  1  0  0  0  0
  4 38  1  0  0  0  0
  5  6  1  0  0  0  0
  5 39  1  0  0  0  0
  6  7  2  0  0  0  0
  6  8  1  0  0  0  0
  8  9  1  0  0  0  0
  8 40  1  0  0  0  0
  9 10  1  0  0  0  0
  9 29  2  0  0  0  0
 10 11  2  0  0  0  0
 10 41  1  0  0  0  0
 11 12  1  0  0  0  0
 11 42  1  0  0  0  0
 12 13  1  0  0  0  0
 12 28  2  0  0  0  0
 13 14  1  0  0  0  0
 13 43  1  0  0  0  0
 14 15  1  0  0  0  0
 14 27  2  0  0  0  0
 15 16  2  0  0  0  0
 16 17  1  0  0  0  0
 16 44  1  0  0  0  0
 17 18  2  0  0  0  0
 18 19  1  0  0  0  0
 18 27  1  0  0  0  0
 19 20  2  0  0  0  0
 19 45  1  0  0  0  0
 20 21  1  0  0  0  0
 20 23  1  0  0  0  0
 21 22  1  0  0  0  0
 22 46  1  0  0  0  0
 22 47  1  0  0  0  0
 22 48  1  0  0  0  0
 23 24  1  0  0  0  0
 23 26  2  0  0  0  0
 24 25  1  0  0  0  0
 25 49  1  0  0  0  0
 25 50  1  0  0  0  0
 25 51  1  0  0  0  0
 26 27  1  0  0  0  0
 26 52  1  0  0  0  0
 28 29  1  0  0  0  0
 28 53  1  0  0  0  0
 29 54  1  0  0  0  0
M  END
$$$$
