CHEMBL405130
 OpenBabel04072215373D

 37 39  0  0  0  0  0  0  0  0999 V2000
    3.4374    0.0859    1.1573 C   0  0  0  0  0  0  0  0  0  0  0  0
    2.5194    0.1344    0.0612 O   0  0  0  0  0  0  0  0  0  0  0  0
    3.0550   -0.1340   -1.1705 C   0  0  0  0  0  0  0  0  0  0  0  0
    4.1311   -1.0299   -1.3178 C   0  0  0  0  0  0  0  0  0  0  0  0
    4.7808   -1.2262   -2.5279 C   0  0  0  0  0  0  0  0  0  0  0  0
    5.8528   -2.0233   -2.5655 N   0  0  0  0  0  0  0  0  0  0  0  0
    6.4712   -2.1369   -3.7455 C   0  0  0  0  0  0  0  0  0  0  0  0
    6.1170   -1.5301   -4.8798 N   0  0  0  0  0  0  0  0  0  0  0  0
    5.0385   -0.7247   -4.8296 C   0  0  0  0  0  0  0  0  0  0  0  0
    4.6638    0.0026   -5.9942 N   0  0  0  0  0  0  0  0  0  0  0  0
    5.1721   -0.2427   -7.2830 C   0  0  0  0  0  0  0  0  0  0  0  0
    5.2296   -1.5490   -7.7871 C   0  0  0  0  0  0  0  0  0  0  0  0
    5.7878   -1.8112   -9.0342 C   0  0  0  0  0  0  0  0  0  0  0  0
    6.2832   -0.7591   -9.7927 C   0  0  0  0  0  0  0  0  0  0  0  0
    6.8814   -0.9783  -10.9949 O   0  0  0  0  0  0  0  0  0  0  0  0
    6.1937    0.5504   -9.3341 C   0  0  0  0  0  0  0  0  0  0  0  0
    5.6311    0.8112   -8.0826 C   0  0  0  0  0  0  0  0  0  0  0  0
    4.3014   -0.5518   -3.6508 C   0  0  0  0  0  0  0  0  0  0  0  0
    3.1421    0.2443   -3.5402 C   0  0  0  0  0  0  0  0  0  0  0  0
    2.5215    0.4749   -2.3100 C   0  0  0  0  0  0  0  0  0  0  0  0
    1.4646    1.3271   -2.4447 O   0  0  0  0  0  0  0  0  0  0  0  0
    0.7596    1.7779   -1.3032 C   0  0  0  0  0  0  0  0  0  0  0  0
    3.1779    0.8881    1.8539 H   0  0  0  0  0  0  0  0  0  0  0  0
    4.4829    0.2473    0.8670 H   0  0  0  0  0  0  0  0  0  0  0  0
    3.3336   -0.8723    1.6757 H   0  0  0  0  0  0  0  0  0  0  0  0
    4.5092   -1.5860   -0.4631 H   0  0  0  0  0  0  0  0  0  0  0  0
    7.3500   -2.7708   -3.7849 H   0  0  0  0  0  0  0  0  0  0  0  0
    4.6423    0.9937   -5.7705 H   0  0  0  0  0  0  0  0  0  0  0  0
    4.8444   -2.3743   -7.1892 H   0  0  0  0  0  0  0  0  0  0  0  0
    5.8343   -2.8347   -9.3867 H   0  0  0  0  0  0  0  0  0  0  0  0
    6.9805   -1.9382  -11.1109 H   0  0  0  0  0  0  0  0  0  0  0  0
    6.5818    1.3636   -9.9395 H   0  0  0  0  0  0  0  0  0  0  0  0
    5.5877    1.8374   -7.7299 H   0  0  0  0  0  0  0  0  0  0  0  0
    2.7151    0.7106   -4.4266 H   0  0  0  0  0  0  0  0  0  0  0  0
    0.1200    2.6044   -1.6329 H   0  0  0  0  0  0  0  0  0  0  0  0
    1.4242    2.1839   -0.5373 H   0  0  0  0  0  0  0  0  0  0  0  0
    0.1081    0.9910   -0.9132 H   0  0  0  0  0  0  0  0  0  0  0  0
  1  2  1  0  0  0  0
  1 23  1  0  0  0  0
  1 24  1  0  0  0  0
  1 25  1  0  0  0  0
  2  3  1  0  0  0  0
  3  4  1  0  0  0  0
  3 20  2  0  0  0  0
  4  5  2  0  0  0  0
  4 26  1  0  0  0  0
  5  6  1  0  0  0  0
  5 18  1  0  0  0  0
  6  7  2  0  0  0  0
  7  8  1  0  0  0  0
  7 27  1  0  0  0  0
  8  9  2  0  0  0  0
  9 10  1  0  0  0  0
  9 18  1  0  0  0  0
 10 11  1  0  0  0  0
 10 28  1  0  0  0  0
 11 12  1  0  0  0  0
 11 17  2  0  0  0  0
 12 13  2  0  0  0  0
 12 29  1  0  0  0  0
 13 14  1  0  0  0  0
 13 30  1  0  0  0  0
 14 15  1  0  0  0  0
 14 16  2  0  0  0  0
 15 31  1  0  0  0  0
 16 17  1  0  0  0  0
 16 32  1  0  0  0  0
 17 33  1  0  0  0  0
 18 19  2  0  0  0  0
 19 20  1  0  0  0  0
 19 34  1  0  0  0  0
 20 21  1  0  0  0  0
 21 22  1  0  0  0  0
 22 35  1  0  0  0  0
 22 36  1  0  0  0  0
 22 37  1  0  0  0  0
M  END
$$$$
