CHEMBL3892776
 OpenBabel04072215373D

 62 65  0  0  0  0  0  0  0  0999 V2000
    0.4580   -1.0550   -3.6472 C   0  0  0  0  0  0  0  0  0  0  0  0
    1.7397   -1.6720   -3.8028 O   0  0  0  0  0  0  0  0  0  0  0  0
    2.7687   -1.1857   -3.0288 C   0  0  0  0  0  0  0  0  0  0  0  0
    2.6457   -0.0931   -2.1699 C   0  0  0  0  0  0  0  0  0  0  0  0
    3.7273    0.3002   -1.3904 C   0  0  0  0  0  0  0  0  0  0  0  0
    3.7240    1.3302   -0.4873 O   0  0  0  0  0  0  0  0  0  0  0  0
    2.5459    2.1256   -0.4178 C   0  0  0  0  0  0  0  0  0  0  0  0
    4.9375   -0.4050   -1.4682 C   0  0  0  0  0  0  0  0  0  0  0  0
    5.1067   -1.5174   -2.3086 C   0  0  0  0  0  0  0  0  0  0  0  0
    6.2451   -2.3643   -2.2301 N   0  0  0  0  0  0  0  0  0  0  0  0
    6.8465   -2.5318   -0.8471 C   0  0  0  0  0  0  0  0  0  0  0  0
    5.9205   -2.9937    0.2943 C   0  0  0  0  0  0  0  0  0  0  0  0
    5.4761   -4.4528    0.2961 C   0  0  0  0  0  0  0  0  0  0  0  0
    6.5859   -5.3395    0.3588 O   0  0  0  0  0  0  0  0  0  0  0  0
    7.3505   -2.4929   -3.1729 C   0  0  0  0  0  0  0  0  0  0  0  0
    7.9100   -3.7691   -3.2104 C   0  0  0  0  0  0  0  0  0  0  0  0
    9.2336   -3.9327   -3.5677 C   0  0  0  0  0  0  0  0  0  0  0  0
    9.9788   -2.8882   -4.0657 C   0  0  0  0  0  0  0  0  0  0  0  0
   11.2780   -3.1703   -4.1965 N   0  0  0  0  0  0  0  0  0  0  0  0
   12.0190   -2.3014   -4.8932 C   0  0  0  0  0  0  0  0  0  0  0  0
   11.4509   -1.2197   -5.5383 C   0  0  0  0  0  0  0  0  0  0  0  0
   12.1624   -0.7914   -6.7465 C   0  0  0  0  0  0  0  0  0  0  0  0
   12.9170    0.3503   -7.0904 C   0  0  0  0  0  0  0  0  0  0  0  0
   13.5186    0.2401   -8.2863 N   0  0  0  0  0  0  0  0  0  0  0  0
   13.1489   -0.9807   -8.7299 N   0  0  0  0  0  0  0  0  0  0  0  0
   13.2544   -1.2960  -10.1574 C   0  0  0  0  0  0  0  0  0  0  0  0
   13.7876   -2.6929  -10.4927 C   0  0  0  0  0  0  0  0  0  0  0  0
   11.8905   -1.0814  -10.8172 C   0  0  0  0  0  0  0  0  0  0  0  0
   12.4566   -1.6800   -7.7777 C   0  0  0  0  0  0  0  0  0  0  0  0
   10.1534   -0.8329   -5.2572 N   0  0  0  0  0  0  0  0  0  0  0  0
    9.3760   -1.6630   -4.4377 C   0  0  0  0  0  0  0  0  0  0  0  0
    8.0480   -1.4693   -3.8814 C   0  0  0  0  0  0  0  0  0  0  0  0
    4.0005   -1.8792   -3.1072 C   0  0  0  0  0  0  0  0  0  0  0  0
   -0.2581   -1.5749   -4.2927 H   0  0  0  0  0  0  0  0  0  0  0  0
    0.4822   -0.0057   -3.9653 H   0  0  0  0  0  0  0  0  0  0  0  0
    0.0914   -1.1454   -2.6171 H   0  0  0  0  0  0  0  0  0  0  0  0
    1.7076    0.4401   -2.0977 H   0  0  0  0  0  0  0  0  0  0  0  0
    2.7347    2.9417    0.2856 H   0  0  0  0  0  0  0  0  0  0  0  0
    1.6990    1.5454   -0.0351 H   0  0  0  0  0  0  0  0  0  0  0  0
    2.3104    2.5735   -1.3892 H   0  0  0  0  0  0  0  0  0  0  0  0
    5.7409   -0.0846   -0.8140 H   0  0  0  0  0  0  0  0  0  0  0  0
    7.3236   -1.5857   -0.5595 H   0  0  0  0  0  0  0  0  0  0  0  0
    7.6663   -3.2562   -0.8575 H   0  0  0  0  0  0  0  0  0  0  0  0
    5.0421   -2.3538    0.3975 H   0  0  0  0  0  0  0  0  0  0  0  0
    6.5109   -2.8584    1.2127 H   0  0  0  0  0  0  0  0  0  0  0  0
    4.8457   -4.7092   -0.5598 H   0  0  0  0  0  0  0  0  0  0  0  0
    4.8869   -4.6362    1.2039 H   0  0  0  0  0  0  0  0  0  0  0  0
    6.9202   -5.4592   -0.5448 H   0  0  0  0  0  0  0  0  0  0  0  0
    7.3686   -4.6214   -2.8127 H   0  0  0  0  0  0  0  0  0  0  0  0
    9.7148   -4.8881   -3.4283 H   0  0  0  0  0  0  0  0  0  0  0  0
   13.0629   -2.5741   -5.0237 H   0  0  0  0  0  0  0  0  0  0  0  0
   13.0825    1.2554   -6.5218 H   0  0  0  0  0  0  0  0  0  0  0  0
   13.9613   -0.5724  -10.5837 H   0  0  0  0  0  0  0  0  0  0  0  0
   13.2125   -3.4904  -10.0120 H   0  0  0  0  0  0  0  0  0  0  0  0
   14.8349   -2.8041  -10.1928 H   0  0  0  0  0  0  0  0  0  0  0  0
   13.7435   -2.8694  -11.5775 H   0  0  0  0  0  0  0  0  0  0  0  0
   11.1289   -1.7362  -10.3782 H   0  0  0  0  0  0  0  0  0  0  0  0
   11.9315   -1.2840  -11.8920 H   0  0  0  0  0  0  0  0  0  0  0  0
   11.5575   -0.0472  -10.6804 H   0  0  0  0  0  0  0  0  0  0  0  0
   12.1854   -2.7158   -7.9295 H   0  0  0  0  0  0  0  0  0  0  0  0
    7.6012   -0.4756   -3.9623 H   0  0  0  0  0  0  0  0  0  0  0  0
    4.0611   -2.7551   -3.7481 H   0  0  0  0  0  0  0  0  0  0  0  0
  1  2  1  0  0  0  0
  1 34  1  0  0  0  0
  1 35  1  0  0  0  0
  1 36  1  0  0  0  0
  2  3  1  0  0  0  0
  3  4  1  0  0  0  0
  3 33  2  0  0  0  0
  4  5  2  0  0  0  0
  4 37  1  0  0  0  0
  5  6  1  0  0  0  0
  5  8  1  0  0  0  0
  6  7  1  0  0  0  0
  7 38  1  0  0  0  0
  7 39  1  0  0  0  0
  7 40  1  0  0  0  0
  8  9  2  0  0  0  0
  8 41  1  0  0  0  0
  9 10  1  0  0  0  0
  9 33  1  0  0  0  0
 10 11  1  0  0  0  0
 10 15  1  0  0  0  0
 11 12  1  0  0  0  0
 11 42  1  0  0  0  0
 11 43  1  0  0  0  0
 12 13  1  0  0  0  0
 12 44  1  0  0  0  0
 12 45  1  0  0  0  0
 13 14  1  0  0  0  0
 13 46  1  0  0  0  0
 13 47  1  0  0  0  0
 14 48  1  0  0  0  0
 15 16  1  0  0  0  0
 15 32  2  0  0  0  0
 16 17  2  0  0  0  0
 16 49  1  0  0  0  0
 17 18  1  0  0  0  0
 17 50  1  0  0  0  0
 18 19  1  0  0  0  0
 18 31  2  0  0  0  0
 19 20  2  0  0  0  0
 20 21  1  0  0  0  0
 20 51  1  0  0  0  0
 21 22  1  0  0  0  0
 21 30  2  0  0  0  0
 22 23  1  0  0  0  0
 22 29  2  0  0  0  0
 23 24  2  0  0  0  0
 23 52  1  0  0  0  0
 24 25  1  0  0  0  0
 25 26  1  0  0  0  0
 25 29  1  0  0  0  0
 26 27  1  0  0  0  0
 26 28  1  0  0  0  0
 26 53  1  0  0  0  0
 27 54  1  0  0  0  0
 27 55  1  0  0  0  0
 27 56  1  0  0  0  0
 28 57  1  0  0  0  0
 28 58  1  0  0  0  0
 28 59  1  0  0  0  0
 29 60  1  0  0  0  0
 30 31  1  0  0  0  0
 31 32  1  0  0  0  0
 32 61  1  0  0  0  0
 33 62  1  0  0  0  0
M  END
$$$$
