CHEMBL200085
 OpenBabel04072215363D

 70 74  0  0  1  0  0  0  0  0999 V2000
    3.9497   -0.0749   -1.6623 C   0  0  0  0  0  0  0  0  0  0  0  0
    2.9144   -0.5898   -0.8265 O   0  0  0  0  0  0  0  0  0  0  0  0
    3.3036   -1.0931    0.3825 C   0  0  0  0  0  0  0  0  0  0  0  0
    4.3254   -0.4865    1.1169 C   0  0  0  0  0  0  0  0  0  0  0  0
    4.8436   -1.0823    2.2874 C   0  0  0  0  0  0  0  0  0  0  0  0
    5.9470   -0.5796    3.0039 C   0  0  0  0  0  0  0  0  0  0  0  0
    6.5059    0.6624    2.6205 N   0  0  0  0  0  0  0  0  0  0  0  0
    7.8472    1.0886    2.7081 C   0  0  0  0  0  0  0  0  0  0  0  0
    8.9159    0.1891    2.6211 C   0  0  0  0  0  0  0  0  0  0  0  0
   10.2302    0.6513    2.4953 C   0  0  0  0  0  0  0  0  0  0  0  0
   10.4877    2.0211    2.4686 C   0  0  0  0  0  0  0  0  0  0  0  0
   12.0945    2.5813    2.2171 Cl  0  0  0  0  0  0  0  0  0  0  0  0
    9.4499    2.9352    2.6066 C   0  0  0  0  0  0  0  0  0  0  0  0
    8.1453    2.4612    2.7161 C   0  0  0  0  0  0  0  0  0  0  0  0
    7.1416    3.3492    2.8056 F   0  0  0  0  0  0  0  0  0  0  0  0
    6.4859   -1.2418    4.0405 N   0  0  0  0  0  0  0  0  0  0  0  0
    5.8850   -2.3835    4.3914 C   0  0  0  0  0  0  0  0  0  0  0  0
    4.8053   -2.9279    3.8092 N   0  0  0  0  0  0  0  0  0  0  0  0
    4.2976   -2.2839    2.7495 C   0  0  0  0  0  0  0  0  0  0  0  0
    3.2069   -2.8216    2.0607 C   0  0  0  0  0  0  0  0  0  0  0  0
    2.6807   -2.2363    0.8946 C   0  0  0  0  0  0  0  0  0  0  0  0
    1.6366   -2.9292    0.3181 O   0  0  0  0  0  0  0  0  0  0  0  0
    0.6455   -2.1268   -0.3361 C   0  0  0  0  0  0  0  0  0  0  0  0
   -0.5230   -2.9854   -0.8436 C   0  0  0  0  0  0  0  0  0  0  0  0
   -1.4991   -2.1781   -1.5680 N   0  0  0  0  0  0  0  0  0  0  0  0
   -2.4235   -1.4247   -0.8818 C   0  0  0  0  0  0  0  0  0  0  0  0
   -2.6018   -1.5291    0.3323 O   0  0  0  0  0  0  0  0  0  0  0  0
   -3.1869   -0.4176   -1.7218 C   0  0  0  0  0  0  0  0  0  0  0  0
   -3.0732    0.9614   -1.0712 C   0  0  0  0  0  0  0  0  0  0  0  0
   -3.8673    2.0376   -1.8120 C   0  0  0  0  0  0  0  0  0  0  0  0
   -3.7235    3.3860   -1.0938 C   0  0  0  0  0  0  0  0  0  0  0  0
   -4.4581    4.5370   -1.7945 C   0  0  3  0  0  0  0  0  0  0  0  0
   -4.1745    6.0708   -0.8493 S   0  0  0  0  0  0  0  0  0  0  0  0
   -5.5537    5.7640    0.2859 C   0  0  0  0  0  0  0  0  0  0  0  0
   -6.5783    4.9030   -0.4634 C   0  0  3  0  0  0  0  0  0  0  0  0
   -7.7276    5.6733   -0.8904 N   0  0  0  0  0  0  0  0  0  0  0  0
   -7.6703    5.9689   -2.2353 C   0  0  0  0  0  0  0  0  0  0  0  0
   -8.4145    6.7223   -2.8331 O   0  0  0  0  0  0  0  0  0  0  0  0
   -6.6257    5.2589   -2.7817 N   0  0  0  0  0  0  0  0  0  0  0  0
   -5.9824    4.4058   -1.7989 C   0  0  3  0  0  0  0  0  0  0  0  0
    3.7828   -0.4526   -2.6756 H   0  0  0  0  0  0  0  0  0  0  0  0
    4.9608   -0.3773   -1.3680 H   0  0  0  0  0  0  0  0  0  0  0  0
    3.8744    1.0160   -1.6832 H   0  0  0  0  0  0  0  0  0  0  0  0
    4.7744    0.4328    0.7497 H   0  0  0  0  0  0  0  0  0  0  0  0
    5.8410    1.4203    2.7524 H   0  0  0  0  0  0  0  0  0  0  0  0
    8.7317   -0.8823    2.6056 H   0  0  0  0  0  0  0  0  0  0  0  0
   11.0402   -0.0657    2.3891 H   0  0  0  0  0  0  0  0  0  0  0  0
    9.6355    4.0039    2.5999 H   0  0  0  0  0  0  0  0  0  0  0  0
    6.3170   -2.9240    5.2272 H   0  0  0  0  0  0  0  0  0  0  0  0
    2.7634   -3.7418    2.4371 H   0  0  0  0  0  0  0  0  0  0  0  0
    1.0594   -1.6572   -1.2301 H   0  0  0  0  0  0  0  0  0  0  0  0
    0.2764   -1.3531    0.3486 H   0  0  0  0  0  0  0  0  0  0  0  0
   -1.0143   -3.5018   -0.0112 H   0  0  0  0  0  0  0  0  0  0  0  0
   -0.1572   -3.7529   -1.5337 H   0  0  0  0  0  0  0  0  0  0  0  0
   -1.3236   -1.9795   -2.5457 H   0  0  0  0  0  0  0  0  0  0  0  0
   -4.2332   -0.7424   -1.7684 H   0  0  0  0  0  0  0  0  0  0  0  0
   -2.8022   -0.3853   -2.7464 H   0  0  0  0  0  0  0  0  0  0  0  0
   -2.0153    1.2503   -1.0231 H   0  0  0  0  0  0  0  0  0  0  0  0
   -3.4272    0.9096   -0.0334 H   0  0  0  0  0  0  0  0  0  0  0  0
   -4.9191    1.7370   -1.8521 H   0  0  0  0  0  0  0  0  0  0  0  0
   -3.5095    2.1256   -2.8443 H   0  0  0  0  0  0  0  0  0  0  0  0
   -2.6536    3.6303   -1.0383 H   0  0  0  0  0  0  0  0  0  0  0  0
   -4.0742    3.2724   -0.0600 H   0  0  0  0  0  0  0  0  0  0  0  0
   -4.0653    4.6642   -2.8092 H   0  0  0  0  0  0  0  0  0  0  0  0
   -5.9729    6.7065    0.6510 H   0  0  0  0  0  0  0  0  0  0  0  0
   -5.1599    5.2126    1.1458 H   0  0  0  0  0  0  0  0  0  0  0  0
   -6.9333    4.0840    0.1708 H   0  0  0  0  0  0  0  0  0  0  0  0
   -8.3696    6.1778   -0.2933 H   0  0  0  0  0  0  0  0  0  0  0  0
   -6.4497    5.2854   -3.7771 H   0  0  0  0  0  0  0  0  0  0  0  0
   -6.3208    3.3913   -2.0289 H   0  0  0  0  0  0  0  0  0  0  0  0
  1  2  1  0  0  0  0
  1 41  1  0  0  0  0
  1 42  1  0  0  0  0
  1 43  1  0  0  0  0
  2  3  1  0  0  0  0
  3  4  1  0  0  0  0
  3 21  2  0  0  0  0
  4  5  2  0  0  0  0
  4 44  1  0  0  0  0
  5  6  1  0  0  0  0
  5 19  1  0  0  0  0
  6  7  1  0  0  0  0
  6 16  2  0  0  0  0
  7  8  1  0  0  0  0
  7 45  1  0  0  0  0
  8  9  1  0  0  0  0
  8 14  2  0  0  0  0
  9 10  2  0  0  0  0
  9 46  1  0  0  0  0
 10 11  1  0  0  0  0
 10 47  1  0  0  0  0
 11 12  1  0  0  0  0
 11 13  2  0  0  0  0
 13 14  1  0  0  0  0
 13 48  1  0  0  0  0
 14 15  1  0  0  0  0
 16 17  1  0  0  0  0
 17 18  2  0  0  0  0
 17 49  1  0  0  0  0
 18 19  1  0  0  0  0
 19 20  2  0  0  0  0
 20 21  1  0  0  0  0
 20 50  1  0  0  0  0
 21 22  1  0  0  0  0
 22 23  1  0  0  0  0
 23 24  1  0  0  0  0
 23 51  1  0  0  0  0
 23 52  1  0  0  0  0
 24 25  1  0  0  0  0
 24 53  1  0  0  0  0
 24 54  1  0  0  0  0
 25 26  1  0  0  0  0
 25 55  1  0  0  0  0
 26 27  2  0  0  0  0
 26 28  1  0  0  0  0
 28 29  1  0  0  0  0
 28 56  1  0  0  0  0
 28 57  1  0  0  0  0
 29 30  1  0  0  0  0
 29 58  1  0  0  0  0
 29 59  1  0  0  0  0
 30 31  1  0  0  0  0
 30 60  1  0  0  0  0
 30 61  1  0  0  0  0
 31 32  1  0  0  0  0
 31 62  1  0  0  0  0
 31 63  1  0  0  0  0
 32 33  1  0  0  0  0
 32 40  1  0  0  0  0
 32 64  1  0  0  0  0
 33 34  1  0  0  0  0
 34 35  1  0  0  0  0
 34 65  1  0  0  0  0
 34 66  1  0  0  0  0
 35 36  1  0  0  0  0
 35 40  1  0  0  0  0
 35 67  1  0  0  0  0
 36 37  1  0  0  0  0
 36 68  1  0  0  0  0
 37 38  2  0  0  0  0
 37 39  1  0  0  0  0
 39 40  1  0  0  0  0
 39 69  1  0  0  0  0
 40 70  1  0  0  0  0
M  END
$$$$
