CHEMBL3933341
 OpenBabel04072215373D

 61 64  0  0  0  0  0  0  0  0999 V2000
    0.7868    0.4957   -0.1937 C   0  0  0  0  0  0  0  0  0  0  0  0
    1.9799   -0.1279   -0.5310 O   0  0  0  0  0  0  0  0  0  0  0  0
    2.8997    0.3341   -1.4337 C   0  0  0  0  0  0  0  0  0  0  0  0
    2.6983    1.5449   -2.1049 C   0  0  0  0  0  0  0  0  0  0  0  0
    3.6317    2.0062   -3.0291 C   0  0  0  0  0  0  0  0  0  0  0  0
    3.4085    3.1869   -3.6436 O   0  0  0  0  0  0  0  0  0  0  0  0
    4.3181    3.8016   -4.4780 C   0  0  0  0  0  0  0  0  0  0  0  0
    4.7916    1.2547   -3.2857 C   0  0  0  0  0  0  0  0  0  0  0  0
    5.0951    0.0858   -2.6043 C   0  0  0  0  0  0  0  0  0  0  0  0
    6.3513   -0.6210   -2.8632 N   0  0  0  0  0  0  0  0  0  0  0  0
    6.7560   -1.7036   -1.9155 C   0  0  0  0  0  0  0  0  0  0  0  0
    8.1954   -1.5035   -1.3499 C   0  0  0  0  0  0  0  0  0  0  0  0
    8.3497   -0.1602   -0.8026 N   0  0  0  0  0  0  0  0  0  0  0  0
    9.2239    0.7739   -1.2256 C   0  0  0  0  0  0  0  0  0  0  0  0
    9.0299    1.9064   -0.4717 C   0  0  0  0  0  0  0  0  0  0  0  0
    8.0097    1.5860    0.4025 C   0  0  0  0  0  0  0  0  0  0  0  0
    7.6101    0.3201    0.1804 N   0  0  0  0  0  0  0  0  0  0  0  0
    7.3875   -0.3048   -3.8735 C   0  0  0  0  0  0  0  0  0  0  0  0
    8.0744   -1.4380   -4.3416 C   0  0  0  0  0  0  0  0  0  0  0  0
    9.2988   -1.3653   -4.9122 C   0  0  0  0  0  0  0  0  0  0  0  0
    9.8614   -0.1591   -5.1759 C   0  0  0  0  0  0  0  0  0  0  0  0
   11.1396   -0.1819   -5.5604 N   0  0  0  0  0  0  0  0  0  0  0  0
   11.7553    0.9163   -5.9897 C   0  0  0  0  0  0  0  0  0  0  0  0
   10.9976    2.0503   -6.2467 C   0  0  0  0  0  0  0  0  0  0  0  0
   11.4824    2.7560   -7.4916 C   0  0  0  0  0  0  0  0  0  0  0  0
   11.2758    3.9829   -8.1080 C   0  0  0  0  0  0  0  0  0  0  0  0
   11.8123    3.9514   -9.3606 N   0  0  0  0  0  0  0  0  0  0  0  0
   12.3412    2.7469   -9.5545 N   0  0  0  0  0  0  0  0  0  0  0  0
   12.9066    2.2122  -10.7948 C   0  0  0  0  0  0  0  0  0  0  0  0
   12.1836    2.0225   -8.4578 C   0  0  0  0  0  0  0  0  0  0  0  0
    9.7342    2.1691   -5.6621 N   0  0  0  0  0  0  0  0  0  0  0  0
    9.1543    1.0555   -5.0528 C   0  0  0  0  0  0  0  0  0  0  0  0
    7.9002    1.0008   -4.3229 C   0  0  0  0  0  0  0  0  0  0  0  0
    4.0899   -0.3849   -1.6705 C   0  0  0  0  0  0  0  0  0  0  0  0
    2.1067   -2.6579    1.1545 Cl  0  0  0  0  0  0  0  0  0  0  0  0
    0.2411   -0.1213    0.5525 H   0  0  0  0  0  0  0  0  0  0  0  0
    0.1310    0.6093   -1.0850 H   0  0  0  0  0  0  0  0  0  0  0  0
    0.9786    1.4925    0.2596 H   0  0  0  0  0  0  0  0  0  0  0  0
    1.8101    2.1439   -1.9307 H   0  0  0  0  0  0  0  0  0  0  0  0
    3.9376    4.7949   -4.7770 H   0  0  0  0  0  0  0  0  0  0  0  0
    4.4817    3.1780   -5.3835 H   0  0  0  0  0  0  0  0  0  0  0  0
    5.2846    3.9391   -3.9401 H   0  0  0  0  0  0  0  0  0  0  0  0
    5.4579    1.6085   -4.0236 H   0  0  0  0  0  0  0  0  0  0  0  0
    6.6874   -2.7067   -2.3876 H   0  0  0  0  0  0  0  0  0  0  0  0
    6.1200   -1.7709   -1.0281 H   0  0  0  0  0  0  0  0  0  0  0  0
    8.9793   -1.6631   -2.1150 H   0  0  0  0  0  0  0  0  0  0  0  0
    8.4070   -2.2628   -0.5699 H   0  0  0  0  0  0  0  0  0  0  0  0
    9.9426    0.6478   -2.0279 H   0  0  0  0  0  0  0  0  0  0  0  0
    9.5570    2.8471   -0.5536 H   0  0  0  0  0  0  0  0  0  0  0  0
    7.5785    2.2357    1.1475 H   0  0  0  0  0  0  0  0  0  0  0  0
    7.7391   -2.4392   -4.1489 H   0  0  0  0  0  0  0  0  0  0  0  0
    9.8453   -2.2653   -5.1259 H   0  0  0  0  0  0  0  0  0  0  0  0
   12.7664    0.7919   -6.3439 H   0  0  0  0  0  0  0  0  0  0  0  0
   10.7429    4.8388   -7.7139 H   0  0  0  0  0  0  0  0  0  0  0  0
   12.8407    2.9448  -11.6233 H   0  0  0  0  0  0  0  0  0  0  0  0
   12.3329    1.3013  -11.0929 H   0  0  0  0  0  0  0  0  0  0  0  0
   13.9635    1.8958  -10.6489 H   0  0  0  0  0  0  0  0  0  0  0  0
   12.4920    0.9821   -8.4189 H   0  0  0  0  0  0  0  0  0  0  0  0
    7.4531    1.9502   -4.0600 H   0  0  0  0  0  0  0  0  0  0  0  0
    4.1721   -1.3050   -1.1225 H   0  0  0  0  0  0  0  0  0  0  0  0
    1.8716   -2.6145   -0.2020 H   0  0  0  0  0  0  0  0  0  0  0  0
  1  2  1  0  0  0  0
  1 36  1  0  0  0  0
  1 37  1  0  0  0  0
  1 38  1  0  0  0  0
  2  3  1  0  0  0  0
  3  4  1  0  0  0  0
  3 34  2  0  0  0  0
  4  5  2  0  0  0  0
  4 39  1  0  0  0  0
  5  6  1  0  0  0  0
  5  8  1  0  0  0  0
  6  7  1  0  0  0  0
  7 40  1  0  0  0  0
  7 41  1  0  0  0  0
  7 42  1  0  0  0  0
  8  9  2  0  0  0  0
  8 43  1  0  0  0  0
  9 10  1  0  0  0  0
  9 34  1  0  0  0  0
 10 11  1  0  0  0  0
 10 18  1  0  0  0  0
 11 12  1  0  0  0  0
 11 44  1  0  0  0  0
 11 45  1  0  0  0  0
 12 13  1  0  0  0  0
 12 46  1  0  0  0  0
 12 47  1  0  0  0  0
 13 14  1  0  0  0  0
 13 17  1  0  0  0  0
 14 15  2  0  0  0  0
 14 48  1  0  0  0  0
 15 16  1  0  0  0  0
 15 49  1  0  0  0  0
 16 17  2  0  0  0  0
 16 50  1  0  0  0  0
 18 19  1  0  0  0  0
 18 33  2  0  0  0  0
 19 20  2  0  0  0  0
 19 51  1  0  0  0  0
 20 21  1  0  0  0  0
 20 52  1  0  0  0  0
 21 22  1  0  0  0  0
 21 32  2  0  0  0  0
 22 23  2  0  0  0  0
 23 24  1  0  0  0  0
 23 53  1  0  0  0  0
 24 25  1  0  0  0  0
 24 31  2  0  0  0  0
 25 26  1  0  0  0  0
 25 30  2  0  0  0  0
 26 27  2  0  0  0  0
 26 54  1  0  0  0  0
 27 28  1  0  0  0  0
 28 29  1  0  0  0  0
 28 30  1  0  0  0  0
 29 55  1  0  0  0  0
 29 56  1  0  0  0  0
 29 57  1  0  0  0  0
 30 58  1  0  0  0  0
 31 32  1  0  0  0  0
 32 33  1  0  0  0  0
 33 59  1  0  0  0  0
 34 60  1  0  0  0  0
 35 61  1  0  0  0  0
M  END
$$$$
