CHEMBL2113163
 OpenBabel04072215363D

 65 69  0  0  0  0  0  0  0  0999 V2000
    2.4095   -0.2938    1.0897 C   0  0  0  0  0  0  0  0  0  0  0  0
    2.5276    0.2203   -0.2352 O   0  0  0  0  0  0  0  0  0  0  0  0
    3.1769   -0.5274   -1.1755 C   0  0  0  0  0  0  0  0  0  0  0  0
    4.2107   -1.3940   -0.8450 C   0  0  0  0  0  0  0  0  0  0  0  0
    4.8127   -2.2299   -1.8033 C   0  0  0  0  0  0  0  0  0  0  0  0
    5.8146   -3.1588   -1.4994 C   0  0  0  0  0  0  0  0  0  0  0  0
    6.2750   -3.2602   -0.1628 N   0  0  0  0  0  0  0  0  0  0  0  0
    7.4344   -3.9031    0.2469 C   0  0  0  0  0  0  0  0  0  0  0  0
    8.5326   -4.0983   -0.4861 C   0  0  0  0  0  0  0  0  0  0  0  0
    9.6905   -4.8838   -0.0353 C   0  0  0  0  0  0  0  0  0  0  0  0
   10.6401   -5.0605   -0.7906 O   0  0  0  0  0  0  0  0  0  0  0  0
    9.6299   -5.4789    1.3291 C   0  0  0  0  0  0  0  0  0  0  0  0
   10.6645   -6.3358    1.6479 O   0  0  0  0  0  0  0  0  0  0  0  0
   10.3902   -7.3180    2.6459 C   0  0  0  0  0  0  0  0  0  0  0  0
   11.2807   -8.4763    2.4005 C   0  0  0  0  0  0  0  0  0  0  0  0
   11.8984   -8.9965    1.2817 C   0  0  0  0  0  0  0  0  0  0  0  0
   12.5580  -10.1762    1.7020 C   0  0  0  0  0  0  0  0  0  0  0  0
   12.3019  -10.2989    3.0469 C   0  0  0  0  0  0  0  0  0  0  0  0
   11.5258   -9.2749    3.4801 O   0  0  0  0  0  0  0  0  0  0  0  0
    8.5956   -5.1780    2.1284 C   0  0  0  0  0  0  0  0  0  0  0  0
    7.4505   -4.3733    1.6651 C   0  0  0  0  0  0  0  0  0  0  0  0
    6.5155   -4.1288    2.4237 O   0  0  0  0  0  0  0  0  0  0  0  0
    6.3817   -3.9194   -2.4496 N   0  0  0  0  0  0  0  0  0  0  0  0
    5.9436   -3.7490   -3.7009 C   0  0  0  0  0  0  0  0  0  0  0  0
    4.9862   -2.9042   -4.0949 N   0  0  0  0  0  0  0  0  0  0  0  0
    4.4246   -2.1488   -3.1452 C   0  0  0  0  0  0  0  0  0  0  0  0
    3.4540   -1.2170   -3.4863 C   0  0  0  0  0  0  0  0  0  0  0  0
    2.8473   -0.3797   -2.5319 C   0  0  0  0  0  0  0  0  0  0  0  0
    1.9658    0.5282   -3.0702 O   0  0  0  0  0  0  0  0  0  0  0  0
    1.8266    1.7583   -2.3524 C   0  0  0  0  0  0  0  0  0  0  0  0
    1.5454    2.9159   -3.3071 C   0  0  0  0  0  0  0  0  0  0  0  0
    0.2348    2.7491   -4.0826 C   0  0  0  0  0  0  0  0  0  0  0  0
   -0.1149    3.9611   -4.8499 N   0  0  0  0  0  0  0  0  0  0  0  0
   -1.4297    3.8155   -5.4989 C   0  0  0  0  0  0  0  0  0  0  0  0
   -1.1330    3.1614   -6.8338 C   0  0  0  0  0  0  0  0  0  0  0  0
    0.1666    3.8178   -7.2516 C   0  0  0  0  0  0  0  0  0  0  0  0
    0.8271    4.2492   -5.9472 C   0  0  0  0  0  0  0  0  0  0  0  0
    2.5429    0.5437    1.7803 H   0  0  0  0  0  0  0  0  0  0  0  0
    3.1265   -1.0650    1.3756 H   0  0  0  0  0  0  0  0  0  0  0  0
    1.4044   -0.7027    1.2269 H   0  0  0  0  0  0  0  0  0  0  0  0
    4.6081   -1.4052    0.1648 H   0  0  0  0  0  0  0  0  0  0  0  0
    5.5153   -3.4019    0.5075 H   0  0  0  0  0  0  0  0  0  0  0  0
    8.6194   -3.7267   -1.5025 H   0  0  0  0  0  0  0  0  0  0  0  0
    9.3559   -7.6781    2.5797 H   0  0  0  0  0  0  0  0  0  0  0  0
   10.5716   -6.8836    3.6340 H   0  0  0  0  0  0  0  0  0  0  0  0
   11.8632   -8.5770    0.2839 H   0  0  0  0  0  0  0  0  0  0  0  0
   13.1415  -10.8563    1.0990 H   0  0  0  0  0  0  0  0  0  0  0  0
   12.5793  -11.0241    3.8002 H   0  0  0  0  0  0  0  0  0  0  0  0
    8.5147   -5.5336    3.1481 H   0  0  0  0  0  0  0  0  0  0  0  0
    6.4246   -4.3486   -4.4694 H   0  0  0  0  0  0  0  0  0  0  0  0
    3.1713   -1.1168   -4.5335 H   0  0  0  0  0  0  0  0  0  0  0  0
    2.7529    2.0188   -1.8262 H   0  0  0  0  0  0  0  0  0  0  0  0
    1.0039    1.6575   -1.6365 H   0  0  0  0  0  0  0  0  0  0  0  0
    2.3893    2.9903   -4.0007 H   0  0  0  0  0  0  0  0  0  0  0  0
    1.5141    3.8448   -2.7245 H   0  0  0  0  0  0  0  0  0  0  0  0
   -0.5621    2.5698   -3.3486 H   0  0  0  0  0  0  0  0  0  0  0  0
    0.2860    1.8646   -4.7276 H   0  0  0  0  0  0  0  0  0  0  0  0
   -1.8549    4.8143   -5.6608 H   0  0  0  0  0  0  0  0  0  0  0  0
   -2.1553    3.2503   -4.9043 H   0  0  0  0  0  0  0  0  0  0  0  0
   -1.9290    3.3165   -7.5675 H   0  0  0  0  0  0  0  0  0  0  0  0
   -0.9878    2.0814   -6.7134 H   0  0  0  0  0  0  0  0  0  0  0  0
   -0.0356    4.6959   -7.8759 H   0  0  0  0  0  0  0  0  0  0  0  0
    0.7966    3.1302   -7.8243 H   0  0  0  0  0  0  0  0  0  0  0  0
    1.0184    5.3288   -5.9720 H   0  0  0  0  0  0  0  0  0  0  0  0
    1.8029    3.7679   -5.8414 H   0  0  0  0  0  0  0  0  0  0  0  0
  1  2  1  0  0  0  0
  1 38  1  0  0  0  0
  1 39  1  0  0  0  0
  1 40  1  0  0  0  0
  2  3  1  0  0  0  0
  3  4  1  0  0  0  0
  3 28  2  0  0  0  0
  4  5  2  0  0  0  0
  4 41  1  0  0  0  0
  5  6  1  0  0  0  0
  5 26  1  0  0  0  0
  6  7  1  0  0  0  0
  6 23  2  0  0  0  0
  7  8  1  0  0  0  0
  7 42  1  0  0  0  0
  8  9  2  0  0  0  0
  8 21  1  0  0  0  0
  9 10  1  0  0  0  0
  9 43  1  0  0  0  0
 10 11  2  0  0  0  0
 10 12  1  0  0  0  0
 12 13  1  0  0  0  0
 12 20  2  0  0  0  0
 13 14  1  0  0  0  0
 14 15  1  0  0  0  0
 14 44  1  0  0  0  0
 14 45  1  0  0  0  0
 15 16  2  0  0  0  0
 15 19  1  0  0  0  0
 16 17  1  0  0  0  0
 16 46  1  0  0  0  0
 17 18  2  0  0  0  0
 17 47  1  0  0  0  0
 18 19  1  0  0  0  0
 18 48  1  0  0  0  0
 20 21  1  0  0  0  0
 20 49  1  0  0  0  0
 21 22  2  0  0  0  0
 23 24  1  0  0  0  0
 24 25  2  0  0  0  0
 24 50  1  0  0  0  0
 25 26  1  0  0  0  0
 26 27  2  0  0  0  0
 27 28  1  0  0  0  0
 27 51  1  0  0  0  0
 28 29  1  0  0  0  0
 29 30  1  0  0  0  0
 30 31  1  0  0  0  0
 30 52  1  0  0  0  0
 30 53  1  0  0  0  0
 31 32  1  0  0  0  0
 31 54  1  0  0  0  0
 31 55  1  0  0  0  0
 32 33  1  0  0  0  0
 32 56  1  0  0  0  0
 32 57  1  0  0  0  0
 33 34  1  0  0  0  0
 33 37  1  0  0  0  0
 34 35  1  0  0  0  0
 34 58  1  0  0  0  0
 34 59  1  0  0  0  0
 35 36  1  0  0  0  0
 35 60  1  0  0  0  0
 35 61  1  0  0  0  0
 36 37  1  0  0  0  0
 36 62  1  0  0  0  0
 36 63  1  0  0  0  0
 37 64  1  0  0  0  0
 37 65  1  0  0  0  0
M  END
$$$$
