CHEMBL3741413
 OpenBabel04072215373D

 62 66  0  0  0  0  0  0  0  0999 V2000
    6.5870    6.5698    2.7891 C   0  0  0  0  0  0  0  0  0  0  0  0
    5.0146    5.8396    2.3993 S   0  0  0  0  0  0  0  0  0  0  0  0
    4.0268    6.3792    3.3157 O   0  0  0  0  0  0  0  0  0  0  0  0
    4.8222    6.0054    0.9671 O   0  0  0  0  0  0  0  0  0  0  0  0
    5.2234    4.0888    2.6959 C   0  0  0  0  0  0  0  0  0  0  0  0
    5.6595    3.7623    4.1029 C   0  0  0  0  0  0  0  0  0  0  0  0
    4.8708    4.0798    5.2151 C   0  0  0  0  0  0  0  0  0  0  0  0
    5.2554    3.6790    6.4951 C   0  0  0  0  0  0  0  0  0  0  0  0
    6.4186    2.9313    6.6771 C   0  0  0  0  0  0  0  0  0  0  0  0
    7.2324    2.6054    5.5898 C   0  0  0  0  0  0  0  0  0  0  0  0
    8.3414    1.7631    5.8072 N   0  0  0  0  0  0  0  0  0  0  0  0
    9.4884    1.6842    5.0110 C   0  0  0  0  0  0  0  0  0  0  0  0
   10.0009    0.4567    4.8334 N   0  0  0  0  0  0  0  0  0  0  0  0
   11.0934    0.3631    4.0553 C   0  0  0  0  0  0  0  0  0  0  0  0
   11.7007    1.4432    3.4679 C   0  0  0  0  0  0  0  0  0  0  0  0
   11.1335    2.6673    3.7499 C   0  0  0  0  0  0  0  0  0  0  0  0
   11.6074    3.8690    3.2632 O   0  0  0  0  0  0  0  0  0  0  0  0
   12.9339    3.9496    2.9259 C   0  0  0  0  0  0  0  0  0  0  0  0
   13.2460    4.4191    1.6528 C   0  0  0  0  0  0  0  0  0  0  0  0
   14.5676    4.3470    1.2065 C   0  0  0  0  0  0  0  0  0  0  0  0
   15.5871    3.9053    2.0715 C   0  0  0  0  0  0  0  0  0  0  0  0
   16.9443    3.8440    1.7258 C   0  0  0  0  0  0  0  0  0  0  0  0
   17.6149    2.4546    2.0665 C   0  0  0  0  0  0  0  0  0  0  0  0
   16.9289    1.4505    2.2152 O   0  0  0  0  0  0  0  0  0  0  0  0
   19.0078    2.4940    2.1972 N   0  0  0  0  0  0  0  0  0  0  0  0
   19.8825    1.5224    2.7077 C   0  0  0  0  0  0  0  0  0  0  0  0
   19.5117    0.2914    3.2601 C   0  0  0  0  0  0  0  0  0  0  0  0
   20.4743   -0.6089    3.7543 C   0  0  0  0  0  0  0  0  0  0  0  0
   21.8306   -0.2800    3.7093 C   0  0  0  0  0  0  0  0  0  0  0  0
   23.0087   -1.3898    4.3019 Cl  0  0  0  0  0  0  0  0  0  0  0  0
   22.2246    0.9448    3.1905 C   0  0  0  0  0  0  0  0  0  0  0  0
   21.2679    1.8339    2.7060 C   0  0  0  0  0  0  0  0  0  0  0  0
   17.6347    4.8624    2.3511 C   0  0  0  0  0  0  0  0  0  0  0  0
   17.3867    5.0290    3.7124 C   0  0  0  0  0  0  0  0  0  0  0  0
   16.2812    4.3849    4.2958 C   0  0  0  0  0  0  0  0  0  0  0  0
   15.2774    3.9093    3.4400 C   0  0  0  0  0  0  0  0  0  0  0  0
   13.9535    3.7291    3.8519 C   0  0  0  0  0  0  0  0  0  0  0  0
   10.0165    2.7961    4.4846 N   0  0  0  0  0  0  0  0  0  0  0  0
    6.8365    3.0177    4.3086 C   0  0  0  0  0  0  0  0  0  0  0  0
    6.5073    7.6443    2.6043 H   0  0  0  0  0  0  0  0  0  0  0  0
    7.3463    6.1388    2.1342 H   0  0  0  0  0  0  0  0  0  0  0  0
    6.8240    6.3941    3.8385 H   0  0  0  0  0  0  0  0  0  0  0  0
    5.9596    3.7382    1.9630 H   0  0  0  0  0  0  0  0  0  0  0  0
    4.2721    3.5955    2.4719 H   0  0  0  0  0  0  0  0  0  0  0  0
    3.9354    4.6260    5.1024 H   0  0  0  0  0  0  0  0  0  0  0  0
    4.6372    3.9363    7.3514 H   0  0  0  0  0  0  0  0  0  0  0  0
    6.6968    2.6131    7.6783 H   0  0  0  0  0  0  0  0  0  0  0  0
    8.0610    0.8049    5.9899 H   0  0  0  0  0  0  0  0  0  0  0  0
   11.4782   -0.6430    3.9143 H   0  0  0  0  0  0  0  0  0  0  0  0
   12.5715    1.3188    2.8391 H   0  0  0  0  0  0  0  0  0  0  0  0
   12.4690    4.8355    1.0177 H   0  0  0  0  0  0  0  0  0  0  0  0
   14.8108    4.7109    0.2101 H   0  0  0  0  0  0  0  0  0  0  0  0
   19.4551    3.3599    1.9307 H   0  0  0  0  0  0  0  0  0  0  0  0
   18.4636    0.0061    3.3253 H   0  0  0  0  0  0  0  0  0  0  0  0
   20.1581   -1.5598    4.1742 H   0  0  0  0  0  0  0  0  0  0  0  0
   23.2839    1.2107    3.1634 H   0  0  0  0  0  0  0  0  0  0  0  0
   21.6090    2.7914    2.3015 H   0  0  0  0  0  0  0  0  0  0  0  0
   18.3791    5.4324    1.8149 H   0  0  0  0  0  0  0  0  0  0  0  0
   18.0097    5.6916    4.3020 H   0  0  0  0  0  0  0  0  0  0  0  0
   16.0972    4.4971    5.3619 H   0  0  0  0  0  0  0  0  0  0  0  0
   13.7134    3.5592    4.8973 H   0  0  0  0  0  0  0  0  0  0  0  0
    7.4385    2.7253    3.4503 H   0  0  0  0  0  0  0  0  0  0  0  0
  1  2  1  0  0  0  0
  1 40  1  0  0  0  0
  1 41  1  0  0  0  0
  1 42  1  0  0  0  0
  2  3  2  0  0  0  0
  2  4  2  0  0  0  0
  2  5  1  0  0  0  0
  5  6  1  0  0  0  0
  5 43  1  0  0  0  0
  5 44  1  0  0  0  0
  6  7  1  0  0  0  0
  6 39  2  0  0  0  0
  7  8  2  0  0  0  0
  7 45  1  0  0  0  0
  8  9  1  0  0  0  0
  8 46  1  0  0  0  0
  9 10  2  0  0  0  0
  9 47  1  0  0  0  0
 10 11  1  0  0  0  0
 10 39  1  0  0  0  0
 11 12  1  0  0  0  0
 11 48  1  0  0  0  0
 12 13  1  0  0  0  0
 12 38  2  0  0  0  0
 13 14  2  0  0  0  0
 14 15  1  0  0  0  0
 14 49  1  0  0  0  0
 15 16  2  0  0  0  0
 15 50  1  0  0  0  0
 16 17  1  0  0  0  0
 16 38  1  0  0  0  0
 17 18  1  0  0  0  0
 18 19  1  0  0  0  0
 18 37  2  0  0  0  0
 19 20  2  0  0  0  0
 19 51  1  0  0  0  0
 20 21  1  0  0  0  0
 20 52  1  0  0  0  0
 21 22  1  0  0  0  0
 21 36  2  0  0  0  0
 22 23  1  0  0  0  0
 22 33  2  0  0  0  0
 23 24  2  0  0  0  0
 23 25  1  0  0  0  0
 25 26  1  0  0  0  0
 25 53  1  0  0  0  0
 26 27  1  0  0  0  0
 26 32  2  0  0  0  0
 27 28  2  0  0  0  0
 27 54  1  0  0  0  0
 28 29  1  0  0  0  0
 28 55  1  0  0  0  0
 29 30  1  0  0  0  0
 29 31  2  0  0  0  0
 31 32  1  0  0  0  0
 31 56  1  0  0  0  0
 32 57  1  0  0  0  0
 33 34  1  0  0  0  0
 33 58  1  0  0  0  0
 34 35  2  0  0  0  0
 34 59  1  0  0  0  0
 35 36  1  0  0  0  0
 35 60  1  0  0  0  0
 36 37  1  0  0  0  0
 37 61  1  0  0  0  0
 39 62  1  0  0  0  0
M  END
$$$$
