CHEMBL3690562
 OpenBabel04072215373D

 52 56  0  0  0  0  0  0  0  0999 V2000
    3.8866   -1.5556    2.8084 O   0  0  0  0  0  0  0  0  0  0  0  0
    4.0303   -2.6393    2.2603 C   0  0  0  0  0  0  0  0  0  0  0  0
    3.5266   -3.7972    2.8180 N   0  0  0  0  0  0  0  0  0  0  0  0
    2.9104   -3.7269    4.1480 C   0  0  0  0  0  0  0  0  0  0  0  0
    3.8928   -3.7721    5.3264 C   0  0  0  0  0  0  0  0  0  0  0  0
    5.1680   -3.9612    4.9130 F   0  0  0  0  0  0  0  0  0  0  0  0
    3.8534   -2.6513    6.0742 F   0  0  0  0  0  0  0  0  0  0  0  0
    3.5896   -4.8147    6.1397 F   0  0  0  0  0  0  0  0  0  0  0  0
    4.6465   -2.8911    1.0564 N   0  0  0  0  0  0  0  0  0  0  0  0
    5.2687   -1.9557    0.2019 C   0  0  0  0  0  0  0  0  0  0  0  0
    5.3443   -0.5910    0.4702 C   0  0  0  0  0  0  0  0  0  0  0  0
    5.9830    0.2691   -0.4230 C   0  0  0  0  0  0  0  0  0  0  0  0
    6.6012   -0.2374   -1.5654 C   0  0  0  0  0  0  0  0  0  0  0  0
    6.5782   -1.6103   -1.8405 C   0  0  0  0  0  0  0  0  0  0  0  0
    7.3116   -2.1285   -3.0033 C   0  0  0  0  0  0  0  0  0  0  0  0
    7.5432   -1.5303   -4.2341 C   0  0  0  0  0  0  0  0  0  0  0  0
    8.3076   -2.3097   -5.0572 N   0  0  0  0  0  0  0  0  0  0  0  0
    8.5726   -3.3886   -4.3567 C   0  0  0  0  0  0  0  0  0  0  0  0
    9.3277   -4.5467   -4.7013 C   0  0  0  0  0  0  0  0  0  0  0  0
    9.4887   -5.5697   -3.8250 C   0  0  0  0  0  0  0  0  0  0  0  0
   10.2836   -6.7605   -4.2267 C   0  0  0  0  0  0  0  0  0  0  0  0
   10.8220   -6.7862   -5.4582 N   0  0  0  0  0  0  0  0  0  0  0  0
   11.5617   -7.8605   -5.7737 C   0  0  0  0  0  0  0  0  0  0  0  0
   11.7907   -8.9058   -4.9102 C   0  0  0  0  0  0  0  0  0  0  0  0
   11.1935   -8.8012   -3.6709 C   0  0  0  0  0  0  0  0  0  0  0  0
   11.3700   -9.8306   -2.7058 N   0  0  0  0  0  0  0  0  0  0  0  0
   12.1342  -10.9738   -2.7944 C   0  0  0  0  0  0  0  0  0  0  0  0
   11.9670  -11.6287   -1.5953 C   0  0  0  0  0  0  0  0  0  0  0  0
   11.1246  -10.9351   -0.7744 N   0  0  0  0  0  0  0  0  0  0  0  0
   10.7861   -9.8627   -1.4597 C   0  0  0  0  0  0  0  0  0  0  0  0
   10.4312   -7.7407   -3.3143 N   0  0  0  0  0  0  0  0  0  0  0  0
    8.8928   -5.4477   -2.4864 C   0  0  0  0  0  0  0  0  0  0  0  0
    8.2057   -4.3466   -2.1462 C   0  0  0  0  0  0  0  0  0  0  0  0
    8.0137   -3.3289   -3.0822 N   0  0  0  0  0  0  0  0  0  0  0  0
    5.8534   -2.4466   -0.9754 C   0  0  0  0  0  0  0  0  0  0  0  0
    4.0368   -4.6442    2.6115 H   0  0  0  0  0  0  0  0  0  0  0  0
    2.2221   -4.5757    4.2088 H   0  0  0  0  0  0  0  0  0  0  0  0
    2.3062   -2.8146    4.2115 H   0  0  0  0  0  0  0  0  0  0  0  0
    4.6163   -3.8464    0.7351 H   0  0  0  0  0  0  0  0  0  0  0  0
    4.9088   -0.1569    1.3645 H   0  0  0  0  0  0  0  0  0  0  0  0
    6.0128    1.3357   -0.2146 H   0  0  0  0  0  0  0  0  0  0  0  0
    7.1161    0.4565   -2.2261 H   0  0  0  0  0  0  0  0  0  0  0  0
    7.1882   -0.5638   -4.5705 H   0  0  0  0  0  0  0  0  0  0  0  0
    9.7647   -4.5619   -5.6949 H   0  0  0  0  0  0  0  0  0  0  0  0
   11.9851   -7.8557   -6.7737 H   0  0  0  0  0  0  0  0  0  0  0  0
   12.3989   -9.7395   -5.2269 H   0  0  0  0  0  0  0  0  0  0  0  0
   12.7278  -11.2292   -3.6561 H   0  0  0  0  0  0  0  0  0  0  0  0
   12.4129  -12.5656   -1.2844 H   0  0  0  0  0  0  0  0  0  0  0  0
   10.1244   -9.0815   -1.1109 H   0  0  0  0  0  0  0  0  0  0  0  0
    9.0373   -6.2541   -1.7734 H   0  0  0  0  0  0  0  0  0  0  0  0
    7.8001   -4.2235   -1.1535 H   0  0  0  0  0  0  0  0  0  0  0  0
    5.7453   -3.4999   -1.2150 H   0  0  0  0  0  0  0  0  0  0  0  0
  1  2  2  0  0  0  0
  2  3  1  0  0  0  0
  2  9  1  0  0  0  0
  3  4  1  0  0  0  0
  3 36  1  0  0  0  0
  4  5  1  0  0  0  0
  4 37  1  0  0  0  0
  4 38  1  0  0  0  0
  5  6  1  0  0  0  0
  5  7  1  0  0  0  0
  5  8  1  0  0  0  0
  9 10  1  0  0  0  0
  9 39  1  0  0  0  0
 10 11  1  0  0  0  0
 10 35  2  0  0  0  0
 11 12  2  0  0  0  0
 11 40  1  0  0  0  0
 12 13  1  0  0  0  0
 12 41  1  0  0  0  0
 13 14  2  0  0  0  0
 13 42  1  0  0  0  0
 14 15  1  0  0  0  0
 14 35  1  0  0  0  0
 15 16  2  0  0  0  0
 15 34  1  0  0  0  0
 16 17  1  0  0  0  0
 16 43  1  0  0  0  0
 17 18  2  0  0  0  0
 18 19  1  0  0  0  0
 18 34  1  0  0  0  0
 19 20  2  0  0  0  0
 19 44  1  0  0  0  0
 20 21  1  0  0  0  0
 20 32  1  0  0  0  0
 21 22  1  0  0  0  0
 21 31  2  0  0  0  0
 22 23  2  0  0  0  0
 23 24  1  0  0  0  0
 23 45  1  0  0  0  0
 24 25  2  0  0  0  0
 24 46  1  0  0  0  0
 25 26  1  0  0  0  0
 25 31  1  0  0  0  0
 26 27  1  0  0  0  0
 26 30  1  0  0  0  0
 27 28  2  0  0  0  0
 27 47  1  0  0  0  0
 28 29  1  0  0  0  0
 28 48  1  0  0  0  0
 29 30  2  0  0  0  0
 30 49  1  0  0  0  0
 32 33  2  0  0  0  0
 32 50  1  0  0  0  0
 33 34  1  0  0  0  0
 33 51  1  0  0  0  0
 35 52  1  0  0  0  0
M  END
$$$$
