CHEMBL1086731
 OpenBabel04072215363D

 63 67  0  0  0  0  0  0  0  0999 V2000
    2.4945    0.1699   -0.4997 C   0  0  0  0  0  0  0  0  0  0  0  0
    1.0307    0.1361   -0.1749 C   0  0  0  0  0  0  0  0  0  0  0  0
    0.3448    1.3633   -0.1604 C   0  0  0  0  0  0  0  0  0  0  0  0
   -1.0398    1.4107   -0.0350 C   0  0  0  0  0  0  0  0  0  0  0  0
   -1.7736    0.2398    0.0181 C   0  0  0  0  0  0  0  0  0  0  0  0
   -3.1858    0.2197   -0.0164 N   0  0  0  0  0  0  0  0  0  0  0  0
   -4.0230    1.2766   -0.3430 C   0  0  0  0  0  0  0  0  0  0  0  0
   -3.6309    2.4020   -0.6548 O   0  0  0  0  0  0  0  0  0  0  0  0
   -5.4520    0.9804   -0.3308 C   0  0  0  0  0  0  0  0  0  0  0  0
   -6.4702    1.8551   -0.6552 C   0  0  0  0  0  0  0  0  0  0  0  0
   -7.7605    1.2626   -0.5493 C   0  0  0  0  0  0  0  0  0  0  0  0
   -7.7042   -0.0611   -0.1428 C   0  0  0  0  0  0  0  0  0  0  0  0
   -8.8483   -1.0546    0.0883 C   0  0  0  0  0  0  0  0  0  0  0  0
  -10.2203   -0.4126   -0.2089 C   0  0  0  0  0  0  0  0  0  0  0  0
   -8.6918   -2.2755   -0.8415 C   0  0  0  0  0  0  0  0  0  0  0  0
   -8.8581   -1.5209    1.5578 C   0  0  0  0  0  0  0  0  0  0  0  0
   -6.0700   -0.5447    0.1052 S   0  0  0  0  0  0  0  0  0  0  0  0
   -1.0920   -0.9842    0.1072 C   0  0  0  0  0  0  0  0  0  0  0  0
    0.3165   -1.0590    0.0825 C   0  0  0  0  0  0  0  0  0  0  0  0
    1.0177   -2.2806    0.2865 N   0  0  0  0  0  0  0  0  0  0  0  0
    0.5262   -3.4150    0.8720 C   0  0  0  0  0  0  0  0  0  0  0  0
   -0.7347   -3.7475    1.0466 N   0  0  0  0  0  0  0  0  0  0  0  0
   -0.7435   -4.9945    1.5933 C   0  0  0  0  0  0  0  0  0  0  0  0
   -1.8521   -5.7778    1.9522 C   0  0  0  0  0  0  0  0  0  0  0  0
   -1.6399   -7.0415    2.5082 C   0  0  0  0  0  0  0  0  0  0  0  0
   -0.3475   -7.4973    2.7446 C   0  0  0  0  0  0  0  0  0  0  0  0
    0.7686   -6.7130    2.4228 C   0  0  0  0  0  0  0  0  0  0  0  0
    0.5470   -5.4707    1.7947 C   0  0  0  0  0  0  0  0  0  0  0  0
    1.3706   -4.4524    1.3084 N   0  0  0  0  0  0  0  0  0  0  0  0
    2.7982   -4.4509    1.2404 C   0  0  0  0  0  0  0  0  0  0  0  0
    3.4755   -5.6449    1.0880 C   0  0  0  0  0  0  0  0  0  0  0  0
    4.8469   -5.5761    0.9972 C   0  0  0  0  0  0  0  0  0  0  0  0
    5.5920   -6.7383    0.8065 N   0  0  0  0  0  0  0  0  0  0  0  0
    5.5227   -4.4316    1.1161 N   0  0  0  0  0  0  0  0  0  0  0  0
    4.7846   -3.3234    1.2635 C   0  0  0  0  0  0  0  0  0  0  0  0
    3.4434   -3.2610    1.2817 N   0  0  0  0  0  0  0  0  0  0  0  0
    2.8141    1.1842   -0.7669 H   0  0  0  0  0  0  0  0  0  0  0  0
    2.6975   -0.4592   -1.3734 H   0  0  0  0  0  0  0  0  0  0  0  0
    3.0985   -0.1574    0.3494 H   0  0  0  0  0  0  0  0  0  0  0  0
    0.8844    2.2988   -0.2612 H   0  0  0  0  0  0  0  0  0  0  0  0
   -1.5070    2.3897   -0.0029 H   0  0  0  0  0  0  0  0  0  0  0  0
   -3.6335   -0.6809    0.1108 H   0  0  0  0  0  0  0  0  0  0  0  0
   -6.2891    2.8808   -0.9580 H   0  0  0  0  0  0  0  0  0  0  0  0
   -8.6765    1.7950   -0.7654 H   0  0  0  0  0  0  0  0  0  0  0  0
  -10.2957   -0.0901   -1.2541 H   0  0  0  0  0  0  0  0  0  0  0  0
  -10.4009    0.4638    0.4247 H   0  0  0  0  0  0  0  0  0  0  0  0
  -11.0362   -1.1218   -0.0254 H   0  0  0  0  0  0  0  0  0  0  0  0
   -8.7213   -1.9753   -1.8957 H   0  0  0  0  0  0  0  0  0  0  0  0
   -9.4952   -3.0026   -0.6772 H   0  0  0  0  0  0  0  0  0  0  0  0
   -7.7450   -2.8016   -0.6779 H   0  0  0  0  0  0  0  0  0  0  0  0
   -8.9823   -0.6723    2.2413 H   0  0  0  0  0  0  0  0  0  0  0  0
   -7.9297   -2.0324    1.8349 H   0  0  0  0  0  0  0  0  0  0  0  0
   -9.6791   -2.2231    1.7436 H   0  0  0  0  0  0  0  0  0  0  0  0
   -1.6775   -1.8938    0.1693 H   0  0  0  0  0  0  0  0  0  0  0  0
    2.0277   -2.1567    0.3359 H   0  0  0  0  0  0  0  0  0  0  0  0
   -2.8549   -5.3982    1.7928 H   0  0  0  0  0  0  0  0  0  0  0  0
   -2.4935   -7.6626    2.7710 H   0  0  0  0  0  0  0  0  0  0  0  0
   -0.2003   -8.4761    3.1978 H   0  0  0  0  0  0  0  0  0  0  0  0
    1.7571   -7.0769    2.6747 H   0  0  0  0  0  0  0  0  0  0  0  0
    2.9840   -6.5986    0.9691 H   0  0  0  0  0  0  0  0  0  0  0  0
    5.2581   -7.2800    0.0123 H   0  0  0  0  0  0  0  0  0  0  0  0
    6.5653   -6.4742    0.6953 H   0  0  0  0  0  0  0  0  0  0  0  0
    5.3258   -2.3895    1.3763 H   0  0  0  0  0  0  0  0  0  0  0  0
  1  2  1  0  0  0  0
  1 37  1  0  0  0  0
  1 38  1  0  0  0  0
  1 39  1  0  0  0  0
  2  3  1  0  0  0  0
  2 19  2  0  0  0  0
  3  4  2  0  0  0  0
  3 40  1  0  0  0  0
  4  5  1  0  0  0  0
  4 41  1  0  0  0  0
  5  6  1  0  0  0  0
  5 18  2  0  0  0  0
  6  7  1  0  0  0  0
  6 42  1  0  0  0  0
  7  8  2  0  0  0  0
  7  9  1  0  0  0  0
  9 10  2  0  0  0  0
  9 17  1  0  0  0  0
 10 11  1  0  0  0  0
 10 43  1  0  0  0  0
 11 12  2  0  0  0  0
 11 44  1  0  0  0  0
 12 13  1  0  0  0  0
 12 17  1  0  0  0  0
 13 14  1  0  0  0  0
 13 15  1  0  0  0  0
 13 16  1  0  0  0  0
 14 45  1  0  0  0  0
 14 46  1  0  0  0  0
 14 47  1  0  0  0  0
 15 48  1  0  0  0  0
 15 49  1  0  0  0  0
 15 50  1  0  0  0  0
 16 51  1  0  0  0  0
 16 52  1  0  0  0  0
 16 53  1  0  0  0  0
 18 19  1  0  0  0  0
 18 54  1  0  0  0  0
 19 20  1  0  0  0  0
 20 21  1  0  0  0  0
 20 55  1  0  0  0  0
 21 22  2  0  0  0  0
 21 29  1  0  0  0  0
 22 23  1  0  0  0  0
 23 24  1  0  0  0  0
 23 28  2  0  0  0  0
 24 25  2  0  0  0  0
 24 56  1  0  0  0  0
 25 26  1  0  0  0  0
 25 57  1  0  0  0  0
 26 27  2  0  0  0  0
 26 58  1  0  0  0  0
 27 28  1  0  0  0  0
 27 59  1  0  0  0  0
 28 29  1  0  0  0  0
 29 30  1  0  0  0  0
 30 31  1  0  0  0  0
 30 36  2  0  0  0  0
 31 32  2  0  0  0  0
 31 60  1  0  0  0  0
 32 33  1  0  0  0  0
 32 34  1  0  0  0  0
 33 61  1  0  0  0  0
 33 62  1  0  0  0  0
 34 35  2  0  0  0  0
 35 36  1  0  0  0  0
 35 63  1  0  0  0  0
M  END
$$$$
