CHEMBL3971285
 OpenBabel04072215373D

 67 71  0  0  0  0  0  0  0  0999 V2000
    2.7276    0.1318    1.2259 O   0  0  0  0  0  0  0  0  0  0  0  0
    2.2866   -0.0802    0.1051 C   0  0  0  0  0  0  0  0  0  0  0  0
    0.9374   -0.1147   -0.2053 N   0  0  0  0  0  0  0  0  0  0  0  0
   -0.1233    0.0880    0.7092 C   0  0  0  0  0  0  0  0  0  0  0  0
    0.0530    0.6235    1.9930 C   0  0  0  0  0  0  0  0  0  0  0  0
   -1.0017    0.7866    2.9009 C   0  0  0  0  0  0  0  0  0  0  0  0
   -0.7987    1.3173    4.1579 N   0  0  0  0  0  0  0  0  0  0  0  0
    0.2092    2.3522    4.4123 C   0  0  0  0  0  0  0  0  0  0  0  0
    1.1489    1.8839    5.5160 C   0  0  0  0  0  0  0  0  0  0  0  0
    0.3573    1.4434    6.7392 C   0  0  0  0  0  0  0  0  0  0  0  0
   -0.2643    2.5342    7.2730 F   0  0  0  0  0  0  0  0  0  0  0  0
   -0.7002    0.4061    6.3974 C   0  0  0  0  0  0  0  0  0  0  0  0
   -1.6206    0.9339    5.3044 C   0  0  0  0  0  0  0  0  0  0  0  0
   -2.2698    0.3939    2.4680 C   0  0  0  0  0  0  0  0  0  0  0  0
   -2.4961   -0.0935    1.1725 C   0  0  0  0  0  0  0  0  0  0  0  0
   -3.9001   -0.3737    0.7111 C   0  0  0  0  0  0  0  0  0  0  0  0
   -4.8515   -0.0972    1.6464 F   0  0  0  0  0  0  0  0  0  0  0  0
   -4.2312    0.3668   -0.3835 F   0  0  0  0  0  0  0  0  0  0  0  0
   -4.0913   -1.6731    0.3554 F   0  0  0  0  0  0  0  0  0  0  0  0
   -1.4106   -0.2574    0.3013 C   0  0  0  0  0  0  0  0  0  0  0  0
    3.0771   -0.3661   -1.0023 N   0  0  0  0  0  0  0  0  0  0  0  0
    4.4867   -0.4920   -0.9981 C   0  0  0  0  0  0  0  0  0  0  0  0
    5.2581   -0.3719    0.1594 C   0  0  0  0  0  0  0  0  0  0  0  0
    6.6481   -0.4633    0.1146 C   0  0  0  0  0  0  0  0  0  0  0  0
    7.3002   -0.7852   -1.0752 C   0  0  0  0  0  0  0  0  0  0  0  0
    8.6680   -0.9684   -1.1673 O   0  0  0  0  0  0  0  0  0  0  0  0
    9.3441   -1.5039   -0.0826 C   0  0  0  0  0  0  0  0  0  0  0  0
    8.7561   -2.4153    0.7905 C   0  0  0  0  0  0  0  0  0  0  0  0
    9.4720   -2.7983    1.8976 C   0  0  0  0  0  0  0  0  0  0  0  0
   10.7290   -2.3982    2.1267 N   0  0  0  0  0  0  0  0  0  0  0  0
   11.3376   -1.5880    1.2437 C   0  0  0  0  0  0  0  0  0  0  0  0
   12.6744   -1.2143    1.4987 N   0  0  0  0  0  0  0  0  0  0  0  0
   13.3711   -1.6506    2.6186 C   0  0  0  0  0  0  0  0  0  0  0  0
   12.9637   -2.3650    3.5128 O   0  0  0  0  0  0  0  0  0  0  0  0
   14.7747   -1.1332    2.7129 C   0  0  0  0  0  0  0  0  0  0  0  0
   15.7415   -1.8172    3.6639 C   0  0  0  0  0  0  0  0  0  0  0  0
   15.2148   -0.4524    3.9934 C   0  0  0  0  0  0  0  0  0  0  0  0
   10.6743   -1.1120    0.1161 C   0  0  0  0  0  0  0  0  0  0  0  0
    6.5337   -0.9066   -2.2341 C   0  0  0  0  0  0  0  0  0  0  0  0
    7.1245   -1.1910   -3.4048 F   0  0  0  0  0  0  0  0  0  0  0  0
    5.1405   -0.7536   -2.2054 C   0  0  0  0  0  0  0  0  0  0  0  0
    0.6824   -0.4415   -1.1246 H   0  0  0  0  0  0  0  0  0  0  0  0
    1.0432    0.9111    2.3227 H   0  0  0  0  0  0  0  0  0  0  0  0
   -0.2983    3.2762    4.7159 H   0  0  0  0  0  0  0  0  0  0  0  0
    0.7941    2.6200    3.5255 H   0  0  0  0  0  0  0  0  0  0  0  0
    1.8268    2.7014    5.7842 H   0  0  0  0  0  0  0  0  0  0  0  0
    1.7581    1.0473    5.1530 H   0  0  0  0  0  0  0  0  0  0  0  0
    1.0333    1.0532    7.5055 H   0  0  0  0  0  0  0  0  0  0  0  0
   -1.2946    0.1610    7.2833 H   0  0  0  0  0  0  0  0  0  0  0  0
   -0.2126   -0.5150    6.0531 H   0  0  0  0  0  0  0  0  0  0  0  0
   -2.1943    1.7998    5.6562 H   0  0  0  0  0  0  0  0  0  0  0  0
   -2.3402    0.1421    5.0714 H   0  0  0  0  0  0  0  0  0  0  0  0
   -3.1253    0.5239    3.1269 H   0  0  0  0  0  0  0  0  0  0  0  0
   -1.5854   -0.6598   -0.6936 H   0  0  0  0  0  0  0  0  0  0  0  0
    2.6173   -0.4266   -1.8965 H   0  0  0  0  0  0  0  0  0  0  0  0
    4.8220   -0.2081    1.1384 H   0  0  0  0  0  0  0  0  0  0  0  0
    7.1904   -0.3210    1.0458 H   0  0  0  0  0  0  0  0  0  0  0  0
    7.7470   -2.7870    0.6628 H   0  0  0  0  0  0  0  0  0  0  0  0
    9.0419   -3.4379    2.6598 H   0  0  0  0  0  0  0  0  0  0  0  0
   13.1252   -0.5992    0.8378 H   0  0  0  0  0  0  0  0  0  0  0  0
   15.2114   -0.7668    1.7894 H   0  0  0  0  0  0  0  0  0  0  0  0
   16.7816   -1.9066    3.3786 H   0  0  0  0  0  0  0  0  0  0  0  0
   15.3790   -2.6529    4.2572 H   0  0  0  0  0  0  0  0  0  0  0  0
   15.9081    0.3769    3.9362 H   0  0  0  0  0  0  0  0  0  0  0  0
   14.4984   -0.3778    4.8059 H   0  0  0  0  0  0  0  0  0  0  0  0
   11.1525   -0.4447   -0.5909 H   0  0  0  0  0  0  0  0  0  0  0  0
    4.5942   -0.8586   -3.1380 H   0  0  0  0  0  0  0  0  0  0  0  0
  1  2  2  0  0  0  0
  2  3  1  0  0  0  0
  2 21  1  0  0  0  0
  3  4  1  0  0  0  0
  3 42  1  0  0  0  0
  4  5  1  0  0  0  0
  4 20  2  0  0  0  0
  5  6  2  0  0  0  0
  5 43  1  0  0  0  0
  6  7  1  0  0  0  0
  6 14  1  0  0  0  0
  7  8  1  0  0  0  0
  7 13  1  0  0  0  0
  8  9  1  0  0  0  0
  8 44  1  0  0  0  0
  8 45  1  0  0  0  0
  9 10  1  0  0  0  0
  9 46  1  0  0  0  0
  9 47  1  0  0  0  0
 10 11  1  0  0  0  0
 10 12  1  0  0  0  0
 10 48  1  0  0  0  0
 12 13  1  0  0  0  0
 12 49  1  0  0  0  0
 12 50  1  0  0  0  0
 13 51  1  0  0  0  0
 13 52  1  0  0  0  0
 14 15  2  0  0  0  0
 14 53  1  0  0  0  0
 15 16  1  0  0  0  0
 15 20  1  0  0  0  0
 16 17  1  0  0  0  0
 16 18  1  0  0  0  0
 16 19  1  0  0  0  0
 20 54  1  0  0  0  0
 21 22  1  0  0  0  0
 21 55  1  0  0  0  0
 22 23  1  0  0  0  0
 22 41  2  0  0  0  0
 23 24  2  0  0  0  0
 23 56  1  0  0  0  0
 24 25  1  0  0  0  0
 24 57  1  0  0  0  0
 25 26  1  0  0  0  0
 25 39  2  0  0  0  0
 26 27  1  0  0  0  0
 27 28  1  0  0  0  0
 27 38  2  0  0  0  0
 28 29  2  0  0  0  0
 28 58  1  0  0  0  0
 29 30  1  0  0  0  0
 29 59  1  0  0  0  0
 30 31  2  0  0  0  0
 31 32  1  0  0  0  0
 31 38  1  0  0  0  0
 32 33  1  0  0  0  0
 32 60  1  0  0  0  0
 33 34  2  0  0  0  0
 33 35  1  0  0  0  0
 35 36  1  0  0  0  0
 35 37  1  0  0  0  0
 35 61  1  0  0  0  0
 36 37  1  0  0  0  0
 36 62  1  0  0  0  0
 36 63  1  0  0  0  0
 37 64  1  0  0  0  0
 37 65  1  0  0  0  0
 38 66  1  0  0  0  0
 39 40  1  0  0  0  0
 39 41  1  0  0  0  0
 41 67  1  0  0  0  0
M  END
$$$$
