CHEMBL3657549
 OpenBabel04072215373D

 52 56  0  0  0  0  0  0  0  0999 V2000
    2.7597   -2.0832   -0.8210 C   0  0  0  0  0  0  0  0  0  0  0  0
    3.2437   -0.7845   -0.2812 C   0  0  0  0  0  0  0  0  0  0  0  0
    4.5880   -0.4552   -0.2296 C   0  0  0  0  0  0  0  0  0  0  0  0
    4.7439    0.8083    0.2854 N   0  0  0  0  0  0  0  0  0  0  0  0
    5.9765    1.5135    0.3444 C   0  0  0  0  0  0  0  0  0  0  0  0
    6.9598    1.1125   -0.5043 N   0  0  0  0  0  0  0  0  0  0  0  0
    8.0841    1.8418   -0.5574 C   0  0  0  0  0  0  0  0  0  0  0  0
    9.1165    1.5409   -1.4431 N   0  0  0  0  0  0  0  0  0  0  0  0
    9.3961    0.3934   -2.1967 C   0  0  0  0  0  0  0  0  0  0  0  0
    8.4238   -0.5446   -2.5599 C   0  0  0  0  0  0  0  0  0  0  0  0
    8.7402   -1.7463   -3.2107 C   0  0  0  0  0  0  0  0  0  0  0  0
   10.0860   -1.9778   -3.5048 C   0  0  0  0  0  0  0  0  0  0  0  0
   11.0812   -1.0578   -3.2031 C   0  0  0  0  0  0  0  0  0  0  0  0
   10.7320    0.1509   -2.5663 C   0  0  0  0  0  0  0  0  0  0  0  0
   12.2707   -1.6642   -3.6705 C   0  0  0  0  0  0  0  0  0  0  0  0
   13.8358   -1.0152   -3.5784 Cl  0  0  0  0  0  0  0  0  0  0  0  0
   12.0694   -2.8727   -4.2022 N   0  0  0  0  0  0  0  0  0  0  0  0
   10.7411   -3.0476   -4.0747 N   0  0  0  0  0  0  0  0  0  0  0  0
   10.1443   -4.2937   -4.4895 C   0  0  0  0  0  0  0  0  0  0  0  0
    8.3072    2.8987    0.2424 N   0  0  0  0  0  0  0  0  0  0  0  0
    7.3338    3.2291    1.1179 C   0  0  0  0  0  0  0  0  0  0  0  0
    6.1282    2.5812    1.1953 C   0  0  0  0  0  0  0  0  0  0  0  0
    5.2162    2.9579    2.0977 F   0  0  0  0  0  0  0  0  0  0  0  0
    3.4922    1.2746    0.6093 C   0  0  0  0  0  0  0  0  0  0  0  0
    2.5213    0.3622    0.2090 C   0  0  0  0  0  0  0  0  0  0  0  0
    1.0583    0.7253    0.1456 C   0  0  0  0  0  0  0  0  0  0  0  0
    0.1957    0.1098    1.1651 N   0  0  0  0  0  0  0  0  0  0  0  0
   -0.2029   -1.2887    0.8870 C   0  0  0  0  0  0  0  0  0  0  0  0
   -1.4187   -0.7986    0.0765 C   0  0  0  0  0  0  0  0  0  0  0  0
   -1.2850   -0.7474   -1.3662 O   0  0  0  0  0  0  0  0  0  0  0  0
   -1.2176    0.5157    0.8674 C   0  0  0  0  0  0  0  0  0  0  0  0
    3.5736   -2.6203   -1.3233 H   0  0  0  0  0  0  0  0  0  0  0  0
    1.9581   -1.9445   -1.5505 H   0  0  0  0  0  0  0  0  0  0  0  0
    2.4176   -2.7330   -0.0099 H   0  0  0  0  0  0  0  0  0  0  0  0
    5.4540   -1.0283   -0.5338 H   0  0  0  0  0  0  0  0  0  0  0  0
    9.8863    2.1722   -1.2712 H   0  0  0  0  0  0  0  0  0  0  0  0
    7.3759   -0.3630   -2.3356 H   0  0  0  0  0  0  0  0  0  0  0  0
    7.9620   -2.4601   -3.4640 H   0  0  0  0  0  0  0  0  0  0  0  0
   11.5135    0.8638   -2.3234 H   0  0  0  0  0  0  0  0  0  0  0  0
   10.9280   -4.9939   -4.7908 H   0  0  0  0  0  0  0  0  0  0  0  0
    9.4782   -4.0924   -5.3317 H   0  0  0  0  0  0  0  0  0  0  0  0
    9.5862   -4.7081   -3.6460 H   0  0  0  0  0  0  0  0  0  0  0  0
    7.5584    4.0531    1.7856 H   0  0  0  0  0  0  0  0  0  0  0  0
    3.3533    2.2835    0.9734 H   0  0  0  0  0  0  0  0  0  0  0  0
    0.7133    0.6159   -0.8853 H   0  0  0  0  0  0  0  0  0  0  0  0
    1.0051    1.8086    0.3393 H   0  0  0  0  0  0  0  0  0  0  0  0
   -0.4972   -1.8327    1.7951 H   0  0  0  0  0  0  0  0  0  0  0  0
    0.4990   -1.9171    0.3512 H   0  0  0  0  0  0  0  0  0  0  0  0
   -2.3521   -1.3139    0.3191 H   0  0  0  0  0  0  0  0  0  0  0  0
   -0.3502   -0.9400   -1.5553 H   0  0  0  0  0  0  0  0  0  0  0  0
   -1.8492    0.5778    1.7630 H   0  0  0  0  0  0  0  0  0  0  0  0
   -1.3566    1.4433    0.3008 H   0  0  0  0  0  0  0  0  0  0  0  0
  1  2  1  0  0  0  0
  1 32  1  0  0  0  0
  1 33  1  0  0  0  0
  1 34  1  0  0  0  0
  2  3  2  0  0  0  0
  2 25  1  0  0  0  0
  3  4  1  0  0  0  0
  3 35  1  0  0  0  0
  4  5  1  0  0  0  0
  4 24  1  0  0  0  0
  5  6  1  0  0  0  0
  5 22  2  0  0  0  0
  6  7  2  0  0  0  0
  7  8  1  0  0  0  0
  7 20  1  0  0  0  0
  8  9  1  0  0  0  0
  8 36  1  0  0  0  0
  9 10  1  0  0  0  0
  9 14  2  0  0  0  0
 10 11  2  0  0  0  0
 10 37  1  0  0  0  0
 11 12  1  0  0  0  0
 11 38  1  0  0  0  0
 12 13  2  0  0  0  0
 12 18  1  0  0  0  0
 13 14  1  0  0  0  0
 13 15  1  0  0  0  0
 14 39  1  0  0  0  0
 15 16  1  0  0  0  0
 15 17  2  0  0  0  0
 17 18  1  0  0  0  0
 18 19  1  0  0  0  0
 19 40  1  0  0  0  0
 19 41  1  0  0  0  0
 19 42  1  0  0  0  0
 20 21  2  0  0  0  0
 21 22  1  0  0  0  0
 21 43  1  0  0  0  0
 22 23  1  0  0  0  0
 24 25  2  0  0  0  0
 24 44  1  0  0  0  0
 25 26  1  0  0  0  0
 26 27  1  0  0  0  0
 26 45  1  0  0  0  0
 26 46  1  0  0  0  0
 27 28  1  0  0  0  0
 27 31  1  0  0  0  0
 28 29  1  0  0  0  0
 28 47  1  0  0  0  0
 28 48  1  0  0  0  0
 29 30  1  0  0  0  0
 29 31  1  0  0  0  0
 29 49  1  0  0  0  0
 30 50  1  0  0  0  0
 31 51  1  0  0  0  0
 31 52  1  0  0  0  0
M  END
$$$$
