CHEMBL2018772
 OpenBabel04072215363D

 65 67  0  0  0  0  0  0  0  0999 V2000
    0.5753    0.2673   -1.4763 C   0  0  0  0  0  0  0  0  0  0  0  0
    2.0646    0.0128   -1.5538 C   0  0  0  0  0  0  0  0  0  0  0  0
    2.8192    1.1333   -2.0894 N   0  0  0  0  0  0  0  0  0  0  0  0
    4.1911    0.9950   -2.0928 C   0  0  0  0  0  0  0  0  0  0  0  0
    4.7356    0.0070   -1.6136 O   0  0  0  0  0  0  0  0  0  0  0  0
    4.8334    2.0753   -2.6580 N   0  0  0  0  0  0  0  0  0  0  0  0
    6.2309    2.1449   -2.8695 C   0  0  0  0  0  0  0  0  0  0  0  0
    7.0294    1.0076   -2.9580 C   0  0  0  0  0  0  0  0  0  0  0  0
    8.4172    1.1077   -3.1001 C   0  0  0  0  0  0  0  0  0  0  0  0
    9.0574    2.3444   -3.1431 C   0  0  0  0  0  0  0  0  0  0  0  0
   10.4577    2.5169   -3.2762 N   0  0  0  0  0  0  0  0  0  0  0  0
   11.5030    1.5511   -3.3090 C   0  0  0  0  0  0  0  0  0  0  0  0
   11.1953    0.2436   -3.4032 N   0  0  0  0  0  0  0  0  0  0  0  0
   12.1932   -0.6378   -3.4353 C   0  0  0  0  0  0  0  0  0  0  0  0
   13.4882   -0.3393   -3.3981 N   0  0  0  0  0  0  0  0  0  0  0  0
   13.7938    0.9540   -3.3179 C   0  0  0  0  0  0  0  0  0  0  0  0
   15.1349    1.2678   -3.2282 C   0  0  0  0  0  0  0  0  0  0  0  0
   15.6087    2.5846   -3.1107 C   0  0  0  0  0  0  0  0  0  0  0  0
   16.9503    2.8525   -2.9738 O   0  0  0  0  0  0  0  0  0  0  0  0
   17.8108    1.8444   -3.5122 C   0  0  0  0  0  0  0  0  0  0  0  0
   19.2153    2.4017   -3.7558 C   0  0  0  0  0  0  0  0  0  0  0  0
   20.1311    1.4278   -4.3922 N   0  0  0  0  0  0  0  0  0  0  0  0
   19.6094    0.8434   -5.6402 C   0  0  0  0  0  0  0  0  0  0  0  0
   19.4021    1.8099   -6.8022 C   0  0  0  0  0  0  0  0  0  0  0  0
   21.4699    2.0225   -4.5228 C   0  0  0  0  0  0  0  0  0  0  0  0
   22.5167    1.0758   -5.0991 C   0  0  0  0  0  0  0  0  0  0  0  0
   14.6860    3.6327   -3.1087 C   0  0  0  0  0  0  0  0  0  0  0  0
   14.9225    4.9782   -3.0171 O   0  0  0  0  0  0  0  0  0  0  0  0
   16.2517    5.4187   -2.7724 C   0  0  0  0  0  0  0  0  0  0  0  0
   13.3200    3.3253   -3.2240 C   0  0  0  0  0  0  0  0  0  0  0  0
   12.8494    1.9832   -3.2937 C   0  0  0  0  0  0  0  0  0  0  0  0
    8.2385    3.4874   -3.1336 C   0  0  0  0  0  0  0  0  0  0  0  0
    6.8411    3.3933   -3.0001 C   0  0  0  0  0  0  0  0  0  0  0  0
    0.0806   -0.5848   -0.9967 H   0  0  0  0  0  0  0  0  0  0  0  0
    0.1467    0.3912   -2.4749 H   0  0  0  0  0  0  0  0  0  0  0  0
    0.3549    1.1653   -0.8927 H   0  0  0  0  0  0  0  0  0  0  0  0
    2.2654   -0.8623   -2.1832 H   0  0  0  0  0  0  0  0  0  0  0  0
    2.4500   -0.2060   -0.5506 H   0  0  0  0  0  0  0  0  0  0  0  0
    2.4439    1.5932   -2.9066 H   0  0  0  0  0  0  0  0  0  0  0  0
    4.3207    2.9429   -2.6299 H   0  0  0  0  0  0  0  0  0  0  0  0
    6.6053    0.0085   -2.9166 H   0  0  0  0  0  0  0  0  0  0  0  0
    8.9666    0.1750   -3.1357 H   0  0  0  0  0  0  0  0  0  0  0  0
   10.7426    3.3238   -2.7325 H   0  0  0  0  0  0  0  0  0  0  0  0
   11.9286   -1.6878   -3.4828 H   0  0  0  0  0  0  0  0  0  0  0  0
   15.8172    0.4220   -3.2309 H   0  0  0  0  0  0  0  0  0  0  0  0
   17.3886    1.5180   -4.4667 H   0  0  0  0  0  0  0  0  0  0  0  0
   17.8771    1.0034   -2.8111 H   0  0  0  0  0  0  0  0  0  0  0  0
   19.6225    2.7017   -2.7804 H   0  0  0  0  0  0  0  0  0  0  0  0
   19.1433    3.3284   -4.3382 H   0  0  0  0  0  0  0  0  0  0  0  0
   18.6677    0.3210   -5.4395 H   0  0  0  0  0  0  0  0  0  0  0  0
   20.2608    0.0260   -5.9685 H   0  0  0  0  0  0  0  0  0  0  0  0
   18.9274    2.7454   -6.4939 H   0  0  0  0  0  0  0  0  0  0  0  0
   18.7500    1.3506   -7.5529 H   0  0  0  0  0  0  0  0  0  0  0  0
   20.3535    2.0492   -7.2861 H   0  0  0  0  0  0  0  0  0  0  0  0
   21.8174    2.3149   -3.5235 H   0  0  0  0  0  0  0  0  0  0  0  0
   21.4363    2.9362   -5.1282 H   0  0  0  0  0  0  0  0  0  0  0  0
   22.5520    0.1362   -4.5383 H   0  0  0  0  0  0  0  0  0  0  0  0
   23.5064    1.5396   -5.0460 H   0  0  0  0  0  0  0  0  0  0  0  0
   22.3229    0.8471   -6.1516 H   0  0  0  0  0  0  0  0  0  0  0  0
   16.2323    6.5101   -2.6953 H   0  0  0  0  0  0  0  0  0  0  0  0
   16.9130    5.1713   -3.6087 H   0  0  0  0  0  0  0  0  0  0  0  0
   16.6303    5.0333   -1.8198 H   0  0  0  0  0  0  0  0  0  0  0  0
   12.6175    4.1548   -3.2468 H   0  0  0  0  0  0  0  0  0  0  0  0
    8.6878    4.4741   -3.2211 H   0  0  0  0  0  0  0  0  0  0  0  0
    6.2568    4.3079   -2.9751 H   0  0  0  0  0  0  0  0  0  0  0  0
  1  2  1  0  0  0  0
  1 34  1  0  0  0  0
  1 35  1  0  0  0  0
  1 36  1  0  0  0  0
  2  3  1  0  0  0  0
  2 37  1  0  0  0  0
  2 38  1  0  0  0  0
  3  4  1  0  0  0  0
  3 39  1  0  0  0  0
  4  5  2  0  0  0  0
  4  6  1  0  0  0  0
  6  7  1  0  0  0  0
  6 40  1  0  0  0  0
  7  8  1  0  0  0  0
  7 33  2  0  0  0  0
  8  9  2  0  0  0  0
  8 41  1  0  0  0  0
  9 10  1  0  0  0  0
  9 42  1  0  0  0  0
 10 11  1  0  0  0  0
 10 32  2  0  0  0  0
 11 12  1  0  0  0  0
 11 43  1  0  0  0  0
 12 13  1  0  0  0  0
 12 31  2  0  0  0  0
 13 14  2  0  0  0  0
 14 15  1  0  0  0  0
 14 44  1  0  0  0  0
 15 16  2  0  0  0  0
 16 17  1  0  0  0  0
 16 31  1  0  0  0  0
 17 18  2  0  0  0  0
 17 45  1  0  0  0  0
 18 19  1  0  0  0  0
 18 27  1  0  0  0  0
 19 20  1  0  0  0  0
 20 21  1  0  0  0  0
 20 46  1  0  0  0  0
 20 47  1  0  0  0  0
 21 22  1  0  0  0  0
 21 48  1  0  0  0  0
 21 49  1  0  0  0  0
 22 23  1  0  0  0  0
 22 25  1  0  0  0  0
 23 24  1  0  0  0  0
 23 50  1  0  0  0  0
 23 51  1  0  0  0  0
 24 52  1  0  0  0  0
 24 53  1  0  0  0  0
 24 54  1  0  0  0  0
 25 26  1  0  0  0  0
 25 55  1  0  0  0  0
 25 56  1  0  0  0  0
 26 57  1  0  0  0  0
 26 58  1  0  0  0  0
 26 59  1  0  0  0  0
 27 28  1  0  0  0  0
 27 30  2  0  0  0  0
 28 29  1  0  0  0  0
 29 60  1  0  0  0  0
 29 61  1  0  0  0  0
 29 62  1  0  0  0  0
 30 31  1  0  0  0  0
 30 63  1  0  0  0  0
 32 33  1  0  0  0  0
 32 64  1  0  0  0  0
 33 65  1  0  0  0  0
M  END
$$$$
