CHEMBL2408615
 OpenBabel04072215363D

 54 59  0  0  1  0  0  0  0  0999 V2000
   18.0262   -2.2479    2.3743 N   0  0  0  0  0  0  0  0  0  0  0  0
   16.8926   -1.6794    1.8261 C   0  0  0  0  0  0  0  0  0  0  0  0
   16.1130   -0.9344    2.6305 N   0  0  0  0  0  0  0  0  0  0  0  0
   14.9659   -0.4112    2.1397 C   0  0  0  0  0  0  0  0  0  0  0  0
   14.4846   -0.5754    0.8349 C   0  0  0  0  0  0  0  0  0  0  0  0
   13.1932   -0.0574    0.4534 C   0  0  0  0  0  0  0  0  0  0  0  0
   12.7377    0.6135   -0.7035 C   0  0  0  0  0  0  0  0  0  0  0  0
   11.4149    0.7907   -0.7109 N   0  0  0  0  0  0  0  0  0  0  0  0
   11.0211    0.3065    0.4819 N   0  0  0  0  0  0  0  0  0  0  0  0
    9.6040    0.2319    0.8242 C   0  0  1  0  0  0  0  0  0  0  0  0
    8.8995    1.5855    0.6516 C   0  0  0  0  0  0  0  0  0  0  0  0
    7.4185    1.4957    0.9837 C   0  0  0  0  0  0  0  0  0  0  0  0
    6.7288    0.4015    0.1638 C   0  0  2  0  0  0  0  0  0  0  0  0
    5.3607    0.3101    0.5405 O   0  0  0  0  0  0  0  0  0  0  0  0
    7.4102   -0.9512    0.3621 C   0  0  0  0  0  0  0  0  0  0  0  0
    8.8983   -0.8808    0.0312 C   0  0  0  0  0  0  0  0  0  0  0  0
   12.0649   -0.1388    1.2453 C   0  0  0  0  0  0  0  0  0  0  0  0
   15.3023   -1.3241   -0.0430 C   0  0  0  0  0  0  0  0  0  0  0  0
   15.2640   -1.8089   -1.4007 C   0  0  0  0  0  0  0  0  0  0  0  0
   14.1998   -1.6791   -2.4314 C   0  0  0  0  0  0  0  0  0  0  0  0
   14.0027   -2.8613   -3.0793 F   0  0  0  0  0  0  0  0  0  0  0  0
   16.4564   -2.4895   -1.6073 C   0  0  0  0  0  0  0  0  0  0  0  0
   17.0054   -3.1705   -2.7801 C   0  0  0  0  0  0  0  0  0  0  0  0
   16.8238   -2.6362   -4.0692 C   0  0  0  0  0  0  0  0  0  0  0  0
   17.1297   -3.3606   -5.2176 C   0  0  0  0  0  0  0  0  0  0  0  0
   17.6781   -4.6347   -5.1090 C   0  0  0  0  0  0  0  0  0  0  0  0
   17.9514   -5.1793   -3.8337 C   0  0  0  0  0  0  0  0  0  0  0  0
   18.5230   -6.4199   -3.5930 N   0  0  0  0  0  0  0  0  0  0  0  0
   18.6334   -6.6723   -2.3034 N   0  0  0  0  0  0  0  0  0  0  0  0
   18.0312   -5.4458   -1.3479 S   0  0  0  0  0  0  0  0  0  0  0  0
   17.6033   -4.4409   -2.6897 C   0  0  0  0  0  0  0  0  0  0  0  0
   17.1955   -2.5168   -0.4665 O   0  0  0  0  0  0  0  0  0  0  0  0
   16.4949   -1.8362    0.4892 C   0  0  0  0  0  0  0  0  0  0  0  0
   18.2955   -1.8101    3.2463 H   0  0  0  0  0  0  0  0  0  0  0  0
   18.7536   -2.5055    1.7229 H   0  0  0  0  0  0  0  0  0  0  0  0
   14.4066    0.1755    2.8677 H   0  0  0  0  0  0  0  0  0  0  0  0
   13.3025    0.9334   -1.5684 H   0  0  0  0  0  0  0  0  0  0  0  0
    9.5654   -0.0345    1.8893 H   0  0  0  0  0  0  0  0  0  0  0  0
    9.0123    1.9449   -0.3796 H   0  0  0  0  0  0  0  0  0  0  0  0
    9.3761    2.3378    1.2952 H   0  0  0  0  0  0  0  0  0  0  0  0
    6.9288    2.4585    0.7964 H   0  0  0  0  0  0  0  0  0  0  0  0
    7.2829    1.2952    2.0539 H   0  0  0  0  0  0  0  0  0  0  0  0
    6.7549    0.6713   -0.8984 H   0  0  0  0  0  0  0  0  0  0  0  0
    5.3130   -0.0067    1.4583 H   0  0  0  0  0  0  0  0  0  0  0  0
    6.9189   -1.7090   -0.2601 H   0  0  0  0  0  0  0  0  0  0  0  0
    7.2753   -1.2875    1.3988 H   0  0  0  0  0  0  0  0  0  0  0  0
    9.0173   -0.7129   -1.0470 H   0  0  0  0  0  0  0  0  0  0  0  0
    9.3646   -1.8508    0.2461 H   0  0  0  0  0  0  0  0  0  0  0  0
   11.9043   -0.5228    2.2449 H   0  0  0  0  0  0  0  0  0  0  0  0
   14.4849   -0.9311   -3.1831 H   0  0  0  0  0  0  0  0  0  0  0  0
   13.2300   -1.4073   -2.0234 H   0  0  0  0  0  0  0  0  0  0  0  0
   16.3962   -1.6450   -4.1962 H   0  0  0  0  0  0  0  0  0  0  0  0
   16.9108   -2.9424   -6.1971 H   0  0  0  0  0  0  0  0  0  0  0  0
   17.8982   -5.2174   -5.9984 H   0  0  0  0  0  0  0  0  0  0  0  0
  1  2  1  0  0  0  0
  1 34  1  0  0  0  0
  1 35  1  0  0  0  0
  2  3  1  0  0  0  0
  2 33  2  0  0  0  0
  3  4  2  0  0  0  0
  4  5  1  0  0  0  0
  4 36  1  0  0  0  0
  5  6  1  0  0  0  0
  5 18  2  0  0  0  0
  6  7  1  0  0  0  0
  6 17  2  0  0  0  0
  7  8  2  0  0  0  0
  7 37  1  0  0  0  0
  8  9  1  0  0  0  0
  9 17  1  0  0  0  0
 10 11  1  0  0  0  0
 10 16  1  0  0  0  0
 10  9  1  0  0  0  0
 10 38  1  1  0  0  0
 11 12  1  0  0  0  0
 11 39  1  0  0  0  0
 11 40  1  0  0  0  0
 12 13  1  0  0  0  0
 12 41  1  0  0  0  0
 12 42  1  0  0  0  0
 13 14  1  0  0  0  0
 13 15  1  0  0  0  0
 13 43  1  6  0  0  0
 14 44  1  0  0  0  0
 15 16  1  0  0  0  0
 15 45  1  0  0  0  0
 15 46  1  0  0  0  0
 16 47  1  0  0  0  0
 16 48  1  0  0  0  0
 17 49  1  0  0  0  0
 18 19  1  0  0  0  0
 18 33  1  0  0  0  0
 19 20  1  0  0  0  0
 19 22  2  0  0  0  0
 20 21  1  0  0  0  0
 20 50  1  0  0  0  0
 20 51  1  0  0  0  0
 22 23  1  0  0  0  0
 22 32  1  0  0  0  0
 23 24  1  0  0  0  0
 23 31  2  0  0  0  0
 24 25  2  0  0  0  0
 24 52  1  0  0  0  0
 25 26  1  0  0  0  0
 25 53  1  0  0  0  0
 26 27  2  0  0  0  0
 26 54  1  0  0  0  0
 27 28  1  0  0  0  0
 27 31  1  0  0  0  0
 28 29  2  0  0  0  0
 29 30  1  0  0  0  0
 30 31  1  0  0  0  0
 32 33  1  0  0  0  0
M  END
$$$$
