CHEMBL3903811
 OpenBabel04072215373D

 69 71  0  0  1  0  0  0  0  0999 V2000
    0.7207   -0.5920   -0.4049 C   0  0  0  0  0  0  0  0  0  0  0  0
    1.9291   -0.9131    0.1843 O   0  0  0  0  0  0  0  0  0  0  0  0
    2.8688   -1.7617   -0.3328 C   0  0  0  0  0  0  0  0  0  0  0  0
    2.6711   -2.4320   -1.5397 C   0  0  0  0  0  0  0  0  0  0  0  0
    3.6425   -3.2982   -2.0300 C   0  0  0  0  0  0  0  0  0  0  0  0
    3.4183   -3.9027   -3.2191 O   0  0  0  0  0  0  0  0  0  0  0  0
    4.3289   -4.7158   -3.8556 C   0  0  0  0  0  0  0  0  0  0  0  0
    4.8345   -3.5062   -1.3069 C   0  0  0  0  0  0  0  0  0  0  0  0
    5.1136   -2.8325   -0.1161 C   0  0  0  0  0  0  0  0  0  0  0  0
    6.3983   -3.0319    0.5761 N   0  0  0  0  0  0  0  0  0  0  0  0
    6.8002   -2.0451    1.6223 C   0  0  0  0  0  0  0  0  0  0  0  0
    7.9088   -1.1360    1.0448 C   0  0  1  0  0  0  0  0  0  0  0  0
    7.3558   -0.3687    0.0054 O   0  0  0  0  0  0  0  0  0  0  0  0
    8.6029   -0.1998    2.0594 C   0  0  0  0  0  0  0  0  0  0  0  0
    9.4124   -0.9313    3.0560 N   0  0  0  0  0  0  0  0  0  0  0  0
   10.2613   -0.0214    3.8653 C   0  0  0  0  0  0  0  0  0  0  0  0
    9.4185    0.9439    4.7140 C   0  0  0  0  0  0  0  0  0  0  0  0
   11.1696   -0.8367    4.8000 C   0  0  0  0  0  0  0  0  0  0  0  0
    7.4371   -4.0294    0.2766 C   0  0  0  0  0  0  0  0  0  0  0  0
    7.9754   -4.5930    1.4341 C   0  0  0  0  0  0  0  0  0  0  0  0
    9.1162   -5.3104    1.4441 C   0  0  0  0  0  0  0  0  0  0  0  0
    9.7720   -5.5869    0.2945 C   0  0  0  0  0  0  0  0  0  0  0  0
   10.9520   -6.1781    0.4500 N   0  0  0  0  0  0  0  0  0  0  0  0
   11.6725   -6.5910   -0.5713 C   0  0  0  0  0  0  0  0  0  0  0  0
   11.1610   -6.5257   -1.8671 C   0  0  0  0  0  0  0  0  0  0  0  0
   11.8976   -7.4799   -2.8288 C   0  0  0  0  0  0  0  0  0  0  0  0
   12.9480   -8.3294   -2.4079 C   0  0  0  0  0  0  0  0  0  0  0  0
   13.2734   -9.1914   -3.3713 N   0  0  0  0  0  0  0  0  0  0  0  0
   12.5027   -8.9435   -4.4038 N   0  0  0  0  0  0  0  0  0  0  0  0
   12.5401   -9.8172   -5.5668 C   0  0  0  0  0  0  0  0  0  0  0  0
   11.6734   -7.8906   -4.1466 C   0  0  0  0  0  0  0  0  0  0  0  0
    9.9672   -5.8106   -2.0827 N   0  0  0  0  0  0  0  0  0  0  0  0
    9.2642   -5.2769   -0.9832 C   0  0  0  0  0  0  0  0  0  0  0  0
    8.0579   -4.4307   -1.0036 C   0  0  0  0  0  0  0  0  0  0  0  0
    4.0782   -1.9554    0.3687 C   0  0  0  0  0  0  0  0  0  0  0  0
    2.4246    1.7029    1.8960 Cl  0  0  0  0  0  0  0  0  0  0  0  0
    0.1601    0.1287    0.2287 H   0  0  0  0  0  0  0  0  0  0  0  0
    0.0866   -1.4934   -0.5433 H   0  0  0  0  0  0  0  0  0  0  0  0
    0.8901   -0.1033   -1.3977 H   0  0  0  0  0  0  0  0  0  0  0  0
    1.7628   -2.2855   -2.1089 H   0  0  0  0  0  0  0  0  0  0  0  0
    3.9260   -5.0203   -4.8386 H   0  0  0  0  0  0  0  0  0  0  0  0
    4.5208   -5.6179   -3.2365 H   0  0  0  0  0  0  0  0  0  0  0  0
    5.2792   -4.1586   -4.0161 H   0  0  0  0  0  0  0  0  0  0  0  0
    5.5611   -4.1873   -1.6883 H   0  0  0  0  0  0  0  0  0  0  0  0
    7.1343   -2.5123    2.5598 H   0  0  0  0  0  0  0  0  0  0  0  0
    6.0046   -1.3940    1.9963 H   0  0  0  0  0  0  0  0  0  0  0  0
    8.7090   -1.7691    0.6077 H   0  0  0  0  0  0  0  0  0  0  0  0
    6.5940    0.1445    0.3891 H   0  0  0  0  0  0  0  0  0  0  0  0
    7.8259    0.4135    2.5573 H   0  0  0  0  0  0  0  0  0  0  0  0
    9.2758    0.4665    1.4740 H   0  0  0  0  0  0  0  0  0  0  0  0
   10.0631   -1.5651    2.5312 H   0  0  0  0  0  0  0  0  0  0  0  0
   10.9265    0.5765    3.1994 H   0  0  0  0  0  0  0  0  0  0  0  0
    8.7282    0.3746    5.3715 H   0  0  0  0  0  0  0  0  0  0  0  0
    8.8335    1.6356    4.0764 H   0  0  0  0  0  0  0  0  0  0  0  0
   10.0784    1.5782    5.3439 H   0  0  0  0  0  0  0  0  0  0  0  0
   10.5631   -1.4543    5.4957 H   0  0  0  0  0  0  0  0  0  0  0  0
   11.8138   -0.1560    5.4008 H   0  0  0  0  0  0  0  0  0  0  0  0
   11.8384   -1.5027    4.2149 H   0  0  0  0  0  0  0  0  0  0  0  0
    7.5415   -4.4537    2.4077 H   0  0  0  0  0  0  0  0  0  0  0  0
    9.5223   -5.6460    2.3877 H   0  0  0  0  0  0  0  0  0  0  0  0
   12.5869   -7.0544   -0.2942 H   0  0  0  0  0  0  0  0  0  0  0  0
   13.4331   -8.4210   -1.4534 H   0  0  0  0  0  0  0  0  0  0  0  0
   13.2340  -10.6739   -5.3660 H   0  0  0  0  0  0  0  0  0  0  0  0
   12.8958   -9.2752   -6.4590 H   0  0  0  0  0  0  0  0  0  0  0  0
   11.5330  -10.2526   -5.7259 H   0  0  0  0  0  0  0  0  0  0  0  0
   10.9280   -7.5272   -4.8390 H   0  0  0  0  0  0  0  0  0  0  0  0
    7.6911   -4.0660   -1.9562 H   0  0  0  0  0  0  0  0  0  0  0  0
    4.1433   -1.4015    1.2877 H   0  0  0  0  0  0  0  0  0  0  0  0
    2.1521    1.9237    0.5648 H   0  0  0  0  0  0  0  0  0  0  0  0
  1  2  1  0  0  0  0
  1 37  1  0  0  0  0
  1 38  1  0  0  0  0
  1 39  1  0  0  0  0
  2  3  1  0  0  0  0
  3  4  1  0  0  0  0
  3 35  2  0  0  0  0
  4  5  2  0  0  0  0
  4 40  1  0  0  0  0
  5  6  1  0  0  0  0
  5  8  1  0  0  0  0
  6  7  1  0  0  0  0
  7 41  1  0  0  0  0
  7 42  1  0  0  0  0
  7 43  1  0  0  0  0
  8  9  2  0  0  0  0
  8 44  1  0  0  0  0
  9 10  1  0  0  0  0
  9 35  1  0  0  0  0
 10 11  1  0  0  0  0
 10 19  1  0  0  0  0
 11 12  1  0  0  0  0
 11 45  1  0  0  0  0
 11 46  1  0  0  0  0
 12 13  1  0  0  0  0
 12 14  1  0  0  0  0
 12 47  1  6  0  0  0
 13 48  1  0  0  0  0
 14 15  1  0  0  0  0
 14 49  1  0  0  0  0
 14 50  1  0  0  0  0
 15 16  1  0  0  0  0
 15 51  1  0  0  0  0
 16 17  1  0  0  0  0
 16 18  1  0  0  0  0
 16 52  1  0  0  0  0
 17 53  1  0  0  0  0
 17 54  1  0  0  0  0
 17 55  1  0  0  0  0
 18 56  1  0  0  0  0
 18 57  1  0  0  0  0
 18 58  1  0  0  0  0
 19 20  1  0  0  0  0
 19 34  2  0  0  0  0
 20 21  2  0  0  0  0
 20 59  1  0  0  0  0
 21 22  1  0  0  0  0
 21 60  1  0  0  0  0
 22 23  1  0  0  0  0
 22 33  2  0  0  0  0
 23 24  2  0  0  0  0
 24 25  1  0  0  0  0
 24 61  1  0  0  0  0
 25 26  1  0  0  0  0
 25 32  2  0  0  0  0
 26 27  1  0  0  0  0
 26 31  2  0  0  0  0
 27 28  2  0  0  0  0
 27 62  1  0  0  0  0
 28 29  1  0  0  0  0
 29 30  1  0  0  0  0
 29 31  1  0  0  0  0
 30 63  1  0  0  0  0
 30 64  1  0  0  0  0
 30 65  1  0  0  0  0
 31 66  1  0  0  0  0
 32 33  1  0  0  0  0
 33 34  1  0  0  0  0
 34 67  1  0  0  0  0
 35 68  1  0  0  0  0
 36 69  1  0  0  0  0
M  END
$$$$
