CHEMBL2071205
 OpenBabel04072215363D

 54 57  0  0  1  0  0  0  0  0999 V2000
    3.3504    2.0531   -2.9829 C   0  0  0  0  0  0  0  0  0  0  0  0
    2.6913    1.0129   -2.2302 N   0  0  0  0  0  0  0  0  0  0  0  0
    1.3559    0.8959   -1.9667 C   0  0  0  0  0  0  0  0  0  0  0  0
    1.2031   -0.3219   -1.3345 C   0  0  0  0  0  0  0  0  0  0  0  0
    0.0316   -0.8731   -0.9475 N   0  0  0  0  0  0  0  0  0  0  0  0
   -0.3452   -2.2285   -1.0711 C   0  0  0  0  0  0  0  0  0  0  0  0
   -1.6411   -2.3782   -1.3508 N   0  0  0  0  0  0  0  0  0  0  0  0
   -1.9513   -3.4804   -2.0374 C   0  0  0  0  0  0  0  0  0  0  0  0
   -1.0272   -4.4436   -2.4002 C   0  0  0  0  0  0  0  0  0  0  0  0
   -1.2962   -5.2400   -3.6178 C   0  0  0  0  0  0  0  0  0  0  0  0
   -2.4225   -4.8353   -4.2795 F   0  0  0  0  0  0  0  0  0  0  0  0
   -0.2964   -5.1286   -4.5456 F   0  0  0  0  0  0  0  0  0  0  0  0
   -1.4705   -6.5702   -3.4059 F   0  0  0  0  0  0  0  0  0  0  0  0
    0.1859   -4.3930   -1.7670 C   0  0  0  0  0  0  0  0  0  0  0  0
    1.1553   -5.3724   -1.7641 N   0  0  0  0  0  0  0  0  0  0  0  0
    1.0677   -6.8371   -1.9935 C   0  0  1  0  0  0  0  0  0  0  0  0
    2.4770   -7.4908   -2.0204 C   0  0  1  0  0  0  0  0  0  0  0  0
    3.5760   -6.6474   -2.6533 C   0  0  0  0  0  0  0  0  0  0  0  0
    3.3916   -6.3227   -3.9666 N   0  0  0  0  0  0  0  0  0  0  0  0
    4.6087   -6.3225   -2.0780 O   0  0  0  0  0  0  0  0  0  0  0  0
    2.9113   -8.0970   -0.6611 C   0  0  0  0  0  0  0  0  0  0  0  0
    1.7149   -8.4621    0.2334 C   0  0  1  0  0  0  0  0  0  0  0  0
    0.7475   -7.2613    0.4629 C   0  0  0  0  0  0  0  0  0  0  0  0
    0.1952   -7.6109   -0.9518 C   0  0  2  0  0  0  0  0  0  0  0  0
    0.5163   -9.1708   -0.5031 C   0  0  0  0  0  0  0  0  0  0  0  0
   -0.4714   -9.8420    0.4907 C   0  0  0  0  0  0  0  0  0  0  0  0
    0.9061  -10.2876   -1.4806 C   0  0  0  0  0  0  0  0  0  0  0  0
    0.5441   -3.2420   -1.1449 N   0  0  0  0  0  0  0  0  0  0  0  0
    2.5100   -0.8331   -1.2332 C   0  0  0  0  0  0  0  0  0  0  0  0
    3.4305   -0.0217   -1.7736 N   0  0  0  0  0  0  0  0  0  0  0  0
    2.6547    2.8739   -3.1715 H   0  0  0  0  0  0  0  0  0  0  0  0
    3.6893    1.6263   -3.9317 H   0  0  0  0  0  0  0  0  0  0  0  0
    4.2059    2.4153   -2.4061 H   0  0  0  0  0  0  0  0  0  0  0  0
    0.6488    1.6521   -2.2811 H   0  0  0  0  0  0  0  0  0  0  0  0
   -0.8263   -0.3587   -1.1357 H   0  0  0  0  0  0  0  0  0  0  0  0
   -2.9794   -3.5079   -2.3917 H   0  0  0  0  0  0  0  0  0  0  0  0
    1.9225   -5.0713   -1.1546 H   0  0  0  0  0  0  0  0  0  0  0  0
    0.6508   -6.9931   -2.9909 H   0  0  0  0  0  0  0  0  0  0  0  0
    2.4007   -8.3299   -2.7206 H   0  0  0  0  0  0  0  0  0  0  0  0
    2.4884   -6.3643   -4.4174 H   0  0  0  0  0  0  0  0  0  0  0  0
    4.0894   -5.7164   -4.3800 H   0  0  0  0  0  0  0  0  0  0  0  0
    3.5815   -7.4288   -0.1115 H   0  0  0  0  0  0  0  0  0  0  0  0
    3.4903   -9.0090   -0.8626 H   0  0  0  0  0  0  0  0  0  0  0  0
    2.0474   -8.9429    1.1602 H   0  0  0  0  0  0  0  0  0  0  0  0
    1.2125   -6.2856    0.6184 H   0  0  0  0  0  0  0  0  0  0  0  0
    0.0202   -7.3714    1.2746 H   0  0  0  0  0  0  0  0  0  0  0  0
   -0.8732   -7.4166   -1.0970 H   0  0  0  0  0  0  0  0  0  0  0  0
   -0.9109   -9.1598    1.2203 H   0  0  0  0  0  0  0  0  0  0  0  0
    0.0411  -10.6306    1.0580 H   0  0  0  0  0  0  0  0  0  0  0  0
   -1.3038  -10.3132   -0.0428 H   0  0  0  0  0  0  0  0  0  0  0  0
    1.5502   -9.9854   -2.2981 H   0  0  0  0  0  0  0  0  0  0  0  0
    0.0185  -10.7405   -1.9357 H   0  0  0  0  0  0  0  0  0  0  0  0
    1.4361  -11.0884   -0.9450 H   0  0  0  0  0  0  0  0  0  0  0  0
    2.8464   -1.7567   -0.7858 H   0  0  0  0  0  0  0  0  0  0  0  0
  1  2  1  0  0  0  0
  1 31  1  0  0  0  0
  1 32  1  0  0  0  0
  1 33  1  0  0  0  0
  2  3  1  0  0  0  0
  2 30  1  0  0  0  0
  3  4  2  0  0  0  0
  3 34  1  0  0  0  0
  4  5  1  0  0  0  0
  4 29  1  0  0  0  0
  5  6  1  0  0  0  0
  5 35  1  0  0  0  0
  6  7  1  0  0  0  0
  6 28  2  0  0  0  0
  7  8  2  0  0  0  0
  8  9  1  0  0  0  0
  8 36  1  0  0  0  0
  9 10  1  0  0  0  0
  9 14  2  0  0  0  0
 10 11  1  0  0  0  0
 10 12  1  0  0  0  0
 10 13  1  0  0  0  0
 14 15  1  0  0  0  0
 14 28  1  0  0  0  0
 15 16  1  0  0  0  0
 15 37  1  0  0  0  0
 16 17  1  0  0  0  0
 16 24  1  0  0  0  0
 16 38  1  6  0  0  0
 17 18  1  0  0  0  0
 17 21  1  0  0  0  0
 17 39  1  6  0  0  0
 18 19  1  0  0  0  0
 18 20  2  0  0  0  0
 19 40  1  0  0  0  0
 19 41  1  0  0  0  0
 21 22  1  0  0  0  0
 21 42  1  0  0  0  0
 21 43  1  0  0  0  0
 22 23  1  0  0  0  0
 22 25  1  0  0  0  0
 22 44  1  1  0  0  0
 23 24  1  0  0  0  0
 23 45  1  0  0  0  0
 23 46  1  0  0  0  0
 24 25  1  0  0  0  0
 24 47  1  6  0  0  0
 25 26  1  0  0  0  0
 25 27  1  0  0  0  0
 26 48  1  0  0  0  0
 26 49  1  0  0  0  0
 26 50  1  0  0  0  0
 27 51  1  0  0  0  0
 27 52  1  0  0  0  0
 27 53  1  0  0  0  0
 29 30  2  0  0  0  0
 29 54  1  0  0  0  0
M  END
$$$$
