CHEMBL191437
 OpenBabel04072215363D

 32 34  0  0  0  0  0  0  0  0999 V2000
    1.2133    0.0903   -1.0090 C   0  0  0  0  0  0  0  0  0  0  0  0
    2.6228   -0.0355   -0.5627 C   0  0  0  0  0  0  0  0  0  0  0  0
    3.5155    1.0118   -0.6224 N   0  0  0  0  0  0  0  0  0  0  0  0
    4.7278    0.6307   -0.0936 C   0  0  0  0  0  0  0  0  0  0  0  0
    5.7787    1.5789   -0.0230 C   0  0  0  0  0  0  0  0  0  0  0  0
    5.9603    2.3832    1.0364 C   0  0  0  0  0  0  0  0  0  0  0  0
    5.0594    2.4977    2.2478 C   0  0  0  0  0  0  0  0  0  0  0  0
    3.9792    1.9854    2.4543 O   0  0  0  0  0  0  0  0  0  0  0  0
    5.7144    3.3738    3.0973 N   0  0  0  0  0  0  0  0  0  0  0  0
    6.8954    3.8432    2.5399 C   0  0  0  0  0  0  0  0  0  0  0  0
    7.7722    4.7371    3.1200 C   0  0  0  0  0  0  0  0  0  0  0  0
    8.9042    5.0896    2.3869 C   0  0  0  0  0  0  0  0  0  0  0  0
    9.1275    4.5428    1.1086 C   0  0  0  0  0  0  0  0  0  0  0  0
    8.2231    3.6321    0.5413 C   0  0  0  0  0  0  0  0  0  0  0  0
    7.0986    3.2864    1.2710 C   0  0  0  0  0  0  0  0  0  0  0  0
    4.6259   -0.6957    0.3018 C   0  0  0  0  0  0  0  0  0  0  0  0
    5.6759   -1.5190    0.9575 C   0  0  0  0  0  0  0  0  0  0  0  0
    3.2977   -1.0935    0.0014 C   0  0  0  0  0  0  0  0  0  0  0  0
    2.5844   -2.7941    0.3744 Br  0  0  0  0  0  0  0  0  0  0  0  0
    1.0015    1.0818   -1.4202 H   0  0  0  0  0  0  0  0  0  0  0  0
    0.5327   -0.0774   -0.1670 H   0  0  0  0  0  0  0  0  0  0  0  0
    0.9876   -0.6519   -1.7820 H   0  0  0  0  0  0  0  0  0  0  0  0
    3.2948    1.9398   -0.9573 H   0  0  0  0  0  0  0  0  0  0  0  0
    6.5094    1.5618   -0.8285 H   0  0  0  0  0  0  0  0  0  0  0  0
    5.3342    3.6363    3.9940 H   0  0  0  0  0  0  0  0  0  0  0  0
    7.5933    5.1508    4.1060 H   0  0  0  0  0  0  0  0  0  0  0  0
    9.6207    5.7922    2.8069 H   0  0  0  0  0  0  0  0  0  0  0  0
   10.0200    4.8343    0.5577 H   0  0  0  0  0  0  0  0  0  0  0  0
    8.4161    3.2176   -0.4422 H   0  0  0  0  0  0  0  0  0  0  0  0
    6.6156   -0.9688    1.0654 H   0  0  0  0  0  0  0  0  0  0  0  0
    5.8807   -2.4191    0.3693 H   0  0  0  0  0  0  0  0  0  0  0  0
    5.3501   -1.8221    1.9580 H   0  0  0  0  0  0  0  0  0  0  0  0
  1  2  1  0  0  0  0
  1 20  1  0  0  0  0
  1 21  1  0  0  0  0
  1 22  1  0  0  0  0
  2  3  1  0  0  0  0
  2 18  2  0  0  0  0
  3  4  1  0  0  0  0
  3 23  1  0  0  0  0
  4  5  1  0  0  0  0
  4 16  2  0  0  0  0
  5  6  2  0  0  0  0
  5 24  1  0  0  0  0
  6  7  1  0  0  0  0
  6 15  1  0  0  0  0
  7  8  2  0  0  0  0
  7  9  1  0  0  0  0
  9 10  1  0  0  0  0
  9 25  1  0  0  0  0
 10 11  1  0  0  0  0
 10 15  2  0  0  0  0
 11 12  2  0  0  0  0
 11 26  1  0  0  0  0
 12 13  1  0  0  0  0
 12 27  1  0  0  0  0
 13 14  2  0  0  0  0
 13 28  1  0  0  0  0
 14 15  1  0  0  0  0
 14 29  1  0  0  0  0
 16 17  1  0  0  0  0
 16 18  1  0  0  0  0
 17 30  1  0  0  0  0
 17 31  1  0  0  0  0
 17 32  1  0  0  0  0
 18 19  1  0  0  0  0
M  END
$$$$
