CHEMBL396472
 OpenBabel04072215373D

 57 60  0  0  0  0  0  0  0  0999 V2000
    1.0427   -0.6853    0.3250 C   0  0  0  0  0  0  0  0  0  0  0  0
    2.2932   -0.0498    0.1400 O   0  0  0  0  0  0  0  0  0  0  0  0
    2.7183    0.6929    1.2927 C   0  0  0  0  0  0  0  0  0  0  0  0
    4.0512    1.3055    0.8973 C   0  0  0  0  0  0  0  0  0  0  0  0
    4.6906    2.0873    1.8877 O   0  0  0  0  0  0  0  0  0  0  0  0
    6.0654    2.1780    1.8054 C   0  0  0  0  0  0  0  0  0  0  0  0
    6.6473    2.3750    3.0869 C   0  0  0  0  0  0  0  0  0  0  0  0
    8.0250    2.5110    3.3074 C   0  0  0  0  0  0  0  0  0  0  0  0
    8.5150    2.7002    4.5461 N   0  0  0  0  0  0  0  0  0  0  0  0
    9.8345    2.8538    4.6530 C   0  0  0  0  0  0  0  0  0  0  0  0
   10.7167    2.8731    3.6620 N   0  0  0  0  0  0  0  0  0  0  0  0
   10.2362    2.6619    2.4141 C   0  0  0  0  0  0  0  0  0  0  0  0
   11.1430    2.6621    1.3251 N   0  0  0  0  0  0  0  0  0  0  0  0
   12.5320    2.6185    1.4227 C   0  0  0  0  0  0  0  0  0  0  0  0
   13.2324    2.1759    2.4748 C   0  0  0  0  0  0  0  0  0  0  0  0
   14.7014    2.2592    2.5972 C   0  0  0  0  0  0  0  0  0  0  0  0
   15.2328    1.9080    3.6463 O   0  0  0  0  0  0  0  0  0  0  0  0
   15.4569    2.8162    1.4430 C   0  0  0  0  0  0  0  0  0  0  0  0
   16.8274    3.0218    1.4674 O   0  0  0  0  0  0  0  0  0  0  0  0
   17.6149    2.1581    2.2954 C   0  0  0  0  0  0  0  0  0  0  0  0
   19.0055    2.0307    1.7080 C   0  0  0  0  0  0  0  0  0  0  0  0
   19.6007    3.0662    0.9677 C   0  0  0  0  0  0  0  0  0  0  0  0
   20.8698    2.9045    0.4025 C   0  0  0  0  0  0  0  0  0  0  0  0
   21.5683    1.7140    0.5896 C   0  0  0  0  0  0  0  0  0  0  0  0
   21.0010    0.7042    1.3560 C   0  0  0  0  0  0  0  0  0  0  0  0
   21.6767   -0.4362    1.5486 F   0  0  0  0  0  0  0  0  0  0  0  0
   19.7379    0.8533    1.9205 C   0  0  0  0  0  0  0  0  0  0  0  0
   14.7842    3.1770    0.3457 C   0  0  0  0  0  0  0  0  0  0  0  0
   13.3131    3.0853    0.2321 C   0  0  0  0  0  0  0  0  0  0  0  0
   12.7506    3.3968   -0.8150 O   0  0  0  0  0  0  0  0  0  0  0  0
    8.8639    2.4378    2.2012 C   0  0  0  0  0  0  0  0  0  0  0  0
    8.3078    2.1526    0.9441 C   0  0  0  0  0  0  0  0  0  0  0  0
    6.9202    2.0904    0.7037 C   0  0  0  0  0  0  0  0  0  0  0  0
    6.7642    1.9572   -0.6382 O   0  0  0  0  0  0  0  0  0  0  0  0
    5.5785    2.1610   -1.3688 C   0  0  0  0  0  0  0  0  0  0  0  0
    0.7928   -1.2149   -0.6001 H   0  0  0  0  0  0  0  0  0  0  0  0
    0.2644    0.0549    0.5240 H   0  0  0  0  0  0  0  0  0  0  0  0
    1.1064   -1.4113    1.1378 H   0  0  0  0  0  0  0  0  0  0  0  0
    2.8235    0.0395    2.1626 H   0  0  0  0  0  0  0  0  0  0  0  0
    1.9941    1.4831    1.5146 H   0  0  0  0  0  0  0  0  0  0  0  0
    3.7596    1.9700    0.0886 H   0  0  0  0  0  0  0  0  0  0  0  0
    4.7045    0.5015    0.5427 H   0  0  0  0  0  0  0  0  0  0  0  0
    5.9938    2.4252    3.9599 H   0  0  0  0  0  0  0  0  0  0  0  0
   10.2455    2.9799    5.6628 H   0  0  0  0  0  0  0  0  0  0  0  0
   10.8384    3.2795    0.5688 H   0  0  0  0  0  0  0  0  0  0  0  0
   12.7526    1.7551    3.3465 H   0  0  0  0  0  0  0  0  0  0  0  0
   17.1717    1.1558    2.3277 H   0  0  0  0  0  0  0  0  0  0  0  0
   17.6911    2.5761    3.3062 H   0  0  0  0  0  0  0  0  0  0  0  0
   19.0711    4.0045    0.8108 H   0  0  0  0  0  0  0  0  0  0  0  0
   21.3077    3.7054   -0.1878 H   0  0  0  0  0  0  0  0  0  0  0  0
   22.5483    1.5678    0.1475 H   0  0  0  0  0  0  0  0  0  0  0  0
   19.3302    0.0385    2.5122 H   0  0  0  0  0  0  0  0  0  0  0  0
   15.3053    3.5790   -0.5161 H   0  0  0  0  0  0  0  0  0  0  0  0
    8.9696    1.9773    0.0954 H   0  0  0  0  0  0  0  0  0  0  0  0
    5.8416    2.4447   -2.3912 H   0  0  0  0  0  0  0  0  0  0  0  0
    4.9663    2.9750   -0.9767 H   0  0  0  0  0  0  0  0  0  0  0  0
    5.0563    1.2033   -1.4579 H   0  0  0  0  0  0  0  0  0  0  0  0
  1  2  1  0  0  0  0
  1 36  1  0  0  0  0
  1 37  1  0  0  0  0
  1 38  1  0  0  0  0
  2  3  1  0  0  0  0
  3  4  1  0  0  0  0
  3 39  1  0  0  0  0
  3 40  1  0  0  0  0
  4  5  1  0  0  0  0
  4 41  1  0  0  0  0
  4 42  1  0  0  0  0
  5  6  1  0  0  0  0
  6  7  1  0  0  0  0
  6 33  2  0  0  0  0
  7  8  2  0  0  0  0
  7 43  1  0  0  0  0
  8  9  1  0  0  0  0
  8 31  1  0  0  0  0
  9 10  2  0  0  0  0
 10 11  1  0  0  0  0
 10 44  1  0  0  0  0
 11 12  2  0  0  0  0
 12 13  1  0  0  0  0
 12 31  1  0  0  0  0
 13 14  1  0  0  0  0
 13 45  1  0  0  0  0
 14 15  2  0  0  0  0
 14 29  1  0  0  0  0
 15 16  1  0  0  0  0
 15 46  1  0  0  0  0
 16 17  2  0  0  0  0
 16 18  1  0  0  0  0
 18 19  1  0  0  0  0
 18 28  2  0  0  0  0
 19 20  1  0  0  0  0
 20 21  1  0  0  0  0
 20 47  1  0  0  0  0
 20 48  1  0  0  0  0
 21 22  1  0  0  0  0
 21 27  2  0  0  0  0
 22 23  2  0  0  0  0
 22 49  1  0  0  0  0
 23 24  1  0  0  0  0
 23 50  1  0  0  0  0
 24 25  2  0  0  0  0
 24 51  1  0  0  0  0
 25 26  1  0  0  0  0
 25 27  1  0  0  0  0
 27 52  1  0  0  0  0
 28 29  1  0  0  0  0
 28 53  1  0  0  0  0
 29 30  2  0  0  0  0
 31 32  2  0  0  0  0
 32 33  1  0  0  0  0
 32 54  1  0  0  0  0
 33 34  1  0  0  0  0
 34 35  1  0  0  0  0
 35 55  1  0  0  0  0
 35 56  1  0  0  0  0
 35 57  1  0  0  0  0
M  END
$$$$
