CHEMBL1971017
 OpenBabel04072215363D

 28 30  0  0  0  0  0  0  0  0999 V2000
    1.3047   -0.7503    0.1206 N   0  0  0  0  0  0  0  0  0  0  0  0
    2.3912    0.0235   -0.1903 C   0  0  0  0  0  0  0  0  0  0  0  0
    2.7223    0.1426   -1.3672 O   0  0  0  0  0  0  0  0  0  0  0  0
    3.0716    0.6811    0.9121 C   0  0  0  0  0  0  0  0  0  0  0  0
    4.1459    1.5469    0.8224 C   0  0  0  0  0  0  0  0  0  0  0  0
    4.5493    2.1282    2.0804 C   0  0  0  0  0  0  0  0  0  0  0  0
    5.5260    3.1112    2.4194 C   0  0  0  0  0  0  0  0  0  0  0  0
    6.3329    3.8431    1.4176 C   0  0  0  0  0  0  0  0  0  0  0  0
    7.6741    4.1953    1.6846 C   0  0  0  0  0  0  0  0  0  0  0  0
    8.4301    4.9644    0.7901 C   0  0  0  0  0  0  0  0  0  0  0  0
    7.8695    5.3773   -0.4120 C   0  0  0  0  0  0  0  0  0  0  0  0
    6.5598    5.0267   -0.7008 C   0  0  0  0  0  0  0  0  0  0  0  0
    6.0139    5.4194   -1.8592 F   0  0  0  0  0  0  0  0  0  0  0  0
    5.7924    4.2878    0.1997 C   0  0  0  0  0  0  0  0  0  0  0  0
    5.6543    3.3764    3.7906 C   0  0  0  0  0  0  0  0  0  0  0  0
    4.9505    2.7962    4.7834 N   0  0  0  0  0  0  0  0  0  0  0  0
    4.0126    1.8904    4.4542 C   0  0  0  0  0  0  0  0  0  0  0  0
    3.7956    1.5590    3.1165 C   0  0  0  0  0  0  0  0  0  0  0  0
    2.6127    0.4547    2.5339 S   0  0  0  0  0  0  0  0  0  0  0  0
    0.7982   -1.1785   -0.6395 H   0  0  0  0  0  0  0  0  0  0  0  0
    0.9695   -0.8446    1.0669 H   0  0  0  0  0  0  0  0  0  0  0  0
    4.5993    1.7777   -0.1358 H   0  0  0  0  0  0  0  0  0  0  0  0
    8.1549    3.8811    2.6102 H   0  0  0  0  0  0  0  0  0  0  0  0
    9.4516    5.2411    1.0390 H   0  0  0  0  0  0  0  0  0  0  0  0
    8.4379    5.9729   -1.1192 H   0  0  0  0  0  0  0  0  0  0  0  0
    4.7583    4.0955   -0.0684 H   0  0  0  0  0  0  0  0  0  0  0  0
    6.3595    4.1246    4.1475 H   0  0  0  0  0  0  0  0  0  0  0  0
    3.4460    1.4540    5.2689 H   0  0  0  0  0  0  0  0  0  0  0  0
  1  2  1  0  0  0  0
  1 20  1  0  0  0  0
  1 21  1  0  0  0  0
  2  3  2  0  0  0  0
  2  4  1  0  0  0  0
  4  5  2  0  0  0  0
  4 19  1  0  0  0  0
  5  6  1  0  0  0  0
  5 22  1  0  0  0  0
  6  7  1  0  0  0  0
  6 18  2  0  0  0  0
  7  8  1  0  0  0  0
  7 15  2  0  0  0  0
  8  9  1  0  0  0  0
  8 14  2  0  0  0  0
  9 10  2  0  0  0  0
  9 23  1  0  0  0  0
 10 11  1  0  0  0  0
 10 24  1  0  0  0  0
 11 12  2  0  0  0  0
 11 25  1  0  0  0  0
 12 13  1  0  0  0  0
 12 14  1  0  0  0  0
 14 26  1  0  0  0  0
 15 16  1  0  0  0  0
 15 27  1  0  0  0  0
 16 17  2  0  0  0  0
 17 18  1  0  0  0  0
 17 28  1  0  0  0  0
 18 19  1  0  0  0  0
M  END
$$$$
