CHEMBL427025
 OpenBabel04072215383D

 36 38  0  0  0  0  0  0  0  0999 V2000
    2.7061    3.1117   -1.2015 N   0  0  0  0  0  0  0  0  0  0  0  0
    3.4160    2.1931   -1.1437 C   0  0  0  0  0  0  0  0  0  0  0  0
    4.2670    1.0614   -1.0936 C   0  0  0  0  0  0  0  0  0  0  0  0
    4.1702   -0.0274   -1.9232 C   0  0  0  0  0  0  0  0  0  0  0  0
    5.0817   -1.0223   -1.6754 N   0  0  0  0  0  0  0  0  0  0  0  0
    5.8374   -0.7383   -0.6341 C   0  0  0  0  0  0  0  0  0  0  0  0
    6.7466   -1.5676   -0.0625 N   0  0  0  0  0  0  0  0  0  0  0  0
    6.6603   -2.9701   -0.1200 C   0  0  0  0  0  0  0  0  0  0  0  0
    6.0863   -3.6238   -1.1922 C   0  0  0  0  0  0  0  0  0  0  0  0
    5.8249   -4.9725   -1.1070 C   0  0  0  0  0  0  0  0  0  0  0  0
    5.1633   -5.6314   -2.1222 N   0  0  0  0  0  0  0  0  0  0  0  0
    4.2529   -6.7205   -1.7911 C   0  0  0  0  0  0  0  0  0  0  0  0
    4.5346   -7.8978   -2.7205 C   0  0  0  0  0  0  0  0  0  0  0  0
    4.5412   -7.4969   -4.2046 C   0  0  0  0  0  0  0  0  0  0  0  0
    3.1914   -7.2361   -4.7193 N   0  0  0  0  0  0  0  0  0  0  0  0
    5.4465   -6.2833   -4.4350 C   0  0  0  0  0  0  0  0  0  0  0  0
    5.1179   -5.1307   -3.4933 C   0  0  0  0  0  0  0  0  0  0  0  0
    6.2182   -5.6570   -0.0234 N   0  0  0  0  0  0  0  0  0  0  0  0
    6.8793   -4.9721    0.9223 C   0  0  0  0  0  0  0  0  0  0  0  0
    7.1156   -3.6510    0.9395 N   0  0  0  0  0  0  0  0  0  0  0  0
    5.5450    0.8338    0.0230 S   0  0  0  0  0  0  0  0  0  0  0  0
    3.4515   -0.1609   -2.7265 H   0  0  0  0  0  0  0  0  0  0  0  0
    7.1557   -1.2991    0.8248 H   0  0  0  0  0  0  0  0  0  0  0  0
    5.7766   -3.0724   -2.0638 H   0  0  0  0  0  0  0  0  0  0  0  0
    3.2172   -6.3775   -1.9178 H   0  0  0  0  0  0  0  0  0  0  0  0
    4.3345   -7.0543   -0.7503 H   0  0  0  0  0  0  0  0  0  0  0  0
    3.8097   -8.6996   -2.5390 H   0  0  0  0  0  0  0  0  0  0  0  0
    5.5227   -8.3049   -2.4677 H   0  0  0  0  0  0  0  0  0  0  0  0
    4.9453   -8.3347   -4.7842 H   0  0  0  0  0  0  0  0  0  0  0  0
    2.7505   -6.4739   -4.2073 H   0  0  0  0  0  0  0  0  0  0  0  0
    2.6044   -8.0555   -4.5672 H   0  0  0  0  0  0  0  0  0  0  0  0
    5.3933   -5.9424   -5.4756 H   0  0  0  0  0  0  0  0  0  0  0  0
    6.4881   -6.5860   -4.2593 H   0  0  0  0  0  0  0  0  0  0  0  0
    4.1309   -4.7028   -3.7082 H   0  0  0  0  0  0  0  0  0  0  0  0
    5.8570   -4.3464   -3.6878 H   0  0  0  0  0  0  0  0  0  0  0  0
    7.2523   -5.5472    1.7629 H   0  0  0  0  0  0  0  0  0  0  0  0
  1  2  3  0  0  0  0
  2  3  1  0  0  0  0
  3  4  2  0  0  0  0
  3 21  1  0  0  0  0
  4  5  1  0  0  0  0
  4 22  1  0  0  0  0
  5  6  2  0  0  0  0
  6  7  1  0  0  0  0
  6 21  1  0  0  0  0
  7  8  1  0  0  0  0
  7 23  1  0  0  0  0
  8  9  1  0  0  0  0
  8 20  2  0  0  0  0
  9 10  2  0  0  0  0
  9 24  1  0  0  0  0
 10 11  1  0  0  0  0
 10 18  1  0  0  0  0
 11 12  1  0  0  0  0
 11 17  1  0  0  0  0
 12 13  1  0  0  0  0
 12 25  1  0  0  0  0
 12 26  1  0  0  0  0
 13 14  1  0  0  0  0
 13 27  1  0  0  0  0
 13 28  1  0  0  0  0
 14 15  1  0  0  0  0
 14 16  1  0  0  0  0
 14 29  1  0  0  0  0
 15 30  1  0  0  0  0
 15 31  1  0  0  0  0
 16 17  1  0  0  0  0
 16 32  1  0  0  0  0
 16 33  1  0  0  0  0
 17 34  1  0  0  0  0
 17 35  1  0  0  0  0
 18 19  2  0  0  0  0
 19 20  1  0  0  0  0
 19 36  1  0  0  0  0
M  END
$$$$
