CHEMBL3955706
 OpenBabel04072215373D

 56 59  0  0  0  0  0  0  0  0999 V2000
    0.7204   -3.4757   -2.8630 C   0  0  0  0  0  0  0  0  0  0  0  0
    2.0289   -3.8872   -2.5148 O   0  0  0  0  0  0  0  0  0  0  0  0
    2.8112   -2.9058   -1.9877 C   0  0  0  0  0  0  0  0  0  0  0  0
    2.4978   -1.6148   -1.7636 C   0  0  0  0  0  0  0  0  0  0  0  0
    3.4030   -0.7779   -1.0952 C   0  0  0  0  0  0  0  0  0  0  0  0
    3.1316    0.5309   -0.8056 O   0  0  0  0  0  0  0  0  0  0  0  0
    1.8492    0.9662   -1.2456 C   0  0  0  0  0  0  0  0  0  0  0  0
    4.6410   -1.2540   -0.6482 C   0  0  0  0  0  0  0  0  0  0  0  0
    4.9694   -2.5933   -0.7656 C   0  0  0  0  0  0  0  0  0  0  0  0
    6.1749   -3.0944   -0.1665 N   0  0  0  0  0  0  0  0  0  0  0  0
    6.7053   -2.4454    1.0737 C   0  0  0  0  0  0  0  0  0  0  0  0
    5.7343   -2.4991    2.2166 C   0  0  0  0  0  0  0  0  0  0  0  0
    5.2871   -3.7692    2.7130 C   0  0  0  0  0  0  0  0  0  0  0  0
    6.3924   -4.6713    3.2371 C   0  0  0  0  0  0  0  0  0  0  0  0
    7.3094   -5.4197    3.6719 N   0  0  0  0  0  0  0  0  0  0  0  0
    7.1770   -3.8599   -0.8857 C   0  0  0  0  0  0  0  0  0  0  0  0
    7.9068   -4.7822   -0.1764 C   0  0  0  0  0  0  0  0  0  0  0  0
    8.8630   -5.4936   -0.8344 C   0  0  0  0  0  0  0  0  0  0  0  0
    9.2978   -5.2071   -2.1074 C   0  0  0  0  0  0  0  0  0  0  0  0
   10.5528   -5.2202   -1.9368 N   0  0  0  0  0  0  0  0  0  0  0  0
   11.0032   -6.4028   -2.2109 C   0  0  0  0  0  0  0  0  0  0  0  0
   11.2407   -6.6941   -3.4504 C   0  0  0  0  0  0  0  0  0  0  0  0
   12.8011   -7.5177   -2.8764 C   0  0  0  0  0  0  0  0  0  0  0  0
   13.9306   -7.5569   -1.8395 C   0  0  0  0  0  0  0  0  0  0  0  0
   14.8543   -8.5763   -1.8762 N   0  0  0  0  0  0  0  0  0  0  0  0
   14.4753   -9.3861   -2.8699 N   0  0  0  0  0  0  0  0  0  0  0  0
   15.1981  -10.6844   -3.1257 C   0  0  0  0  0  0  0  0  0  0  0  0
   13.3060   -8.7906   -3.4925 C   0  0  0  0  0  0  0  0  0  0  0  0
   10.1535   -5.5523   -4.0259 N   0  0  0  0  0  0  0  0  0  0  0  0
    8.8948   -4.6358   -3.1891 C   0  0  0  0  0  0  0  0  0  0  0  0
    7.6279   -3.7240   -2.3078 C   0  0  0  0  0  0  0  0  0  0  0  0
    4.0474   -3.3050   -1.5661 C   0  0  0  0  0  0  0  0  0  0  0  0
    0.1786   -4.3467   -3.2452 H   0  0  0  0  0  0  0  0  0  0  0  0
    0.7610   -2.7237   -3.6559 H   0  0  0  0  0  0  0  0  0  0  0  0
    0.1820   -3.1009   -1.9919 H   0  0  0  0  0  0  0  0  0  0  0  0
    1.5520   -1.2723   -2.1181 H   0  0  0  0  0  0  0  0  0  0  0  0
    1.7320    2.0090   -0.9585 H   0  0  0  0  0  0  0  0  0  0  0  0
    1.0419    0.3911   -0.7715 H   0  0  0  0  0  0  0  0  0  0  0  0
    1.7745    0.9029   -2.3379 H   0  0  0  0  0  0  0  0  0  0  0  0
    5.3588   -0.5653   -0.2125 H   0  0  0  0  0  0  0  0  0  0  0  0
    6.9901   -1.3897    0.9493 H   0  0  0  0  0  0  0  0  0  0  0  0
    7.5791   -3.0197    1.3791 H   0  0  0  0  0  0  0  0  0  0  0  0
    4.7906   -2.0946    1.8254 H   0  0  0  0  0  0  0  0  0  0  0  0
    6.1979   -2.0470    3.1101 H   0  0  0  0  0  0  0  0  0  0  0  0
    4.7518   -4.3067    1.9204 H   0  0  0  0  0  0  0  0  0  0  0  0
    4.5657   -3.6040    3.5237 H   0  0  0  0  0  0  0  0  0  0  0  0
    7.8722   -4.9260    0.8978 H   0  0  0  0  0  0  0  0  0  0  0  0
    9.5687   -6.0896   -0.2378 H   0  0  0  0  0  0  0  0  0  0  0  0
   11.3511   -6.8487   -1.3277 H   0  0  0  0  0  0  0  0  0  0  0  0
   14.1981   -6.8948   -1.0268 H   0  0  0  0  0  0  0  0  0  0  0  0
   16.1134  -10.8405   -2.5079 H   0  0  0  0  0  0  0  0  0  0  0  0
   15.5259  -10.7746   -4.1728 H   0  0  0  0  0  0  0  0  0  0  0  0
   14.5406  -11.5364   -2.8979 H   0  0  0  0  0  0  0  0  0  0  0  0
   12.9769   -9.4009   -4.3183 H   0  0  0  0  0  0  0  0  0  0  0  0
    7.0173   -2.8806   -2.7535 H   0  0  0  0  0  0  0  0  0  0  0  0
    4.1526   -4.2578   -2.0342 H   0  0  0  0  0  0  0  0  0  0  0  0
  1  2  1  0  0  0  0
  1 33  1  0  0  0  0
  1 34  1  0  0  0  0
  1 35  1  0  0  0  0
  2  3  1  0  0  0  0
  3  4  1  0  0  0  0
  3 32  2  0  0  0  0
  4  5  2  0  0  0  0
  4 36  1  0  0  0  0
  5  6  1  0  0  0  0
  5  8  1  0  0  0  0
  6  7  1  0  0  0  0
  7 37  1  0  0  0  0
  7 38  1  0  0  0  0
  7 39  1  0  0  0  0
  8  9  2  0  0  0  0
  8 40  1  0  0  0  0
  9 10  1  0  0  0  0
  9 32  1  0  0  0  0
 10 11  1  0  0  0  0
 10 16  1  0  0  0  0
 11 12  1  0  0  0  0
 11 41  1  0  0  0  0
 11 42  1  0  0  0  0
 12 13  1  0  0  0  0
 12 43  1  0  0  0  0
 12 44  1  0  0  0  0
 13 14  1  0  0  0  0
 13 45  1  0  0  0  0
 13 46  1  0  0  0  0
 14 15  3  0  0  0  0
 16 17  1  0  0  0  0
 16 31  2  0  0  0  0
 17 18  2  0  0  0  0
 17 47  1  0  0  0  0
 18 19  1  0  0  0  0
 18 48  1  0  0  0  0
 19 20  1  0  0  0  0
 19 30  2  0  0  0  0
 20 21  2  0  0  0  0
 21 22  1  0  0  0  0
 21 49  1  0  0  0  0
 22 23  1  0  0  0  0
 22 29  2  0  0  0  0
 23 24  1  0  0  0  0
 23 28  2  0  0  0  0
 24 25  2  0  0  0  0
 24 50  1  0  0  0  0
 25 26  1  0  0  0  0
 26 27  1  0  0  0  0
 26 28  1  0  0  0  0
 27 51  1  0  0  0  0
 27 52  1  0  0  0  0
 27 53  1  0  0  0  0
 28 54  1  0  0  0  0
 29 30  1  0  0  0  0
 30 31  1  0  0  0  0
 31 55  1  0  0  0  0
 32 56  1  0  0  0  0
M  END
$$$$
