CHEMBL1995428
 OpenBabel04072215363D

 59 64  0  0  0  0  0  0  0  0999 V2000
    2.9973    0.0032    1.5140 O   0  0  0  0  0  0  0  0  0  0  0  0
    2.6459    0.6838    0.5533 C   0  0  0  0  0  0  0  0  0  0  0  0
    1.3274    1.4423    0.5731 C   0  0  0  0  0  0  0  0  0  0  0  0
    1.3734    2.7852    1.2628 C   0  0  0  0  0  0  0  0  0  0  0  0
    0.9915    3.9473    0.5777 C   0  0  0  0  0  0  0  0  0  0  0  0
    0.9423    5.1781    1.2371 C   0  0  0  0  0  0  0  0  0  0  0  0
    1.2725    5.2606    2.5873 C   0  0  0  0  0  0  0  0  0  0  0  0
    1.6636    4.1158    3.2779 C   0  0  0  0  0  0  0  0  0  0  0  0
    1.7148    2.8846    2.6202 C   0  0  0  0  0  0  0  0  0  0  0  0
    3.3509    0.8455   -0.6315 N   0  0  0  0  0  0  0  0  0  0  0  0
    4.5179    0.1509   -1.0226 C   0  0  0  0  0  0  0  0  0  0  0  0
    4.9998   -0.9792   -0.3609 C   0  0  0  0  0  0  0  0  0  0  0  0
    6.1753   -1.6030   -0.7853 C   0  0  0  0  0  0  0  0  0  0  0  0
    6.8888   -1.0894   -1.8665 C   0  0  0  0  0  0  0  0  0  0  0  0
    6.4206    0.0357   -2.5553 C   0  0  0  0  0  0  0  0  0  0  0  0
    7.1959    0.5393   -3.6849 C   0  0  0  0  0  0  0  0  0  0  0  0
    7.8394   -0.3501   -4.5323 N   0  0  0  0  0  0  0  0  0  0  0  0
    8.3840    0.4248   -5.4210 C   0  0  0  0  0  0  0  0  0  0  0  0
    9.3416    0.1444   -6.8419 S   0  0  0  0  0  0  0  0  0  0  0  0
    9.3839    1.8909   -7.1110 C   0  0  0  0  0  0  0  0  0  0  0  0
    8.7224    2.5825   -6.1669 C   0  0  0  0  0  0  0  0  0  0  0  0
    8.1605    1.7528   -5.2151 N   0  0  0  0  0  0  0  0  0  0  0  0
    7.4253    1.8771   -4.0530 C   0  0  0  0  0  0  0  0  0  0  0  0
    7.0569    3.1555   -3.4502 C   0  0  0  0  0  0  0  0  0  0  0  0
    6.9358    3.3115   -2.0866 C   0  0  0  0  0  0  0  0  0  0  0  0
    6.4389    4.5152   -1.6685 C   0  0  0  0  0  0  0  0  0  0  0  0
    6.1139    5.5019   -2.5140 N   0  0  0  0  0  0  0  0  0  0  0  0
    6.3270    5.3000   -3.8244 C   0  0  0  0  0  0  0  0  0  0  0  0
    6.0711    6.3306   -4.7204 N   0  0  0  0  0  0  0  0  0  0  0  0
    5.1250    7.3683   -4.6281 C   0  0  0  0  0  0  0  0  0  0  0  0
    3.9802    7.2334   -3.8272 C   0  0  0  0  0  0  0  0  0  0  0  0
    3.0512    8.2681   -3.6993 C   0  0  0  0  0  0  0  0  0  0  0  0
    3.2669    9.4788   -4.3526 C   0  0  0  0  0  0  0  0  0  0  0  0
    4.4060    9.6465   -5.1392 C   0  0  0  0  0  0  0  0  0  0  0  0
    5.3237    8.5987   -5.2824 C   0  0  0  0  0  0  0  0  0  0  0  0
    6.7222    8.8692   -6.2652 Cl  0  0  0  0  0  0  0  0  0  0  0  0
    6.8000    4.1494   -4.3255 N   0  0  0  0  0  0  0  0  0  0  0  0
    5.2087    0.6212   -2.1502 C   0  0  0  0  0  0  0  0  0  0  0  0
    0.5857    0.8110    1.0781 H   0  0  0  0  0  0  0  0  0  0  0  0
    0.9634    1.5535   -0.4563 H   0  0  0  0  0  0  0  0  0  0  0  0
    0.7010    3.9043   -0.4688 H   0  0  0  0  0  0  0  0  0  0  0  0
    0.6272    6.0699    0.7017 H   0  0  0  0  0  0  0  0  0  0  0  0
    1.2158    6.2158    3.1051 H   0  0  0  0  0  0  0  0  0  0  0  0
    1.9145    4.1778    4.3339 H   0  0  0  0  0  0  0  0  0  0  0  0
    2.0046    1.9973    3.1818 H   0  0  0  0  0  0  0  0  0  0  0  0
    3.0537    1.6013   -1.2355 H   0  0  0  0  0  0  0  0  0  0  0  0
    4.4702   -1.4175    0.4801 H   0  0  0  0  0  0  0  0  0  0  0  0
    6.5336   -2.4916   -0.2707 H   0  0  0  0  0  0  0  0  0  0  0  0
    7.8102   -1.5794   -2.1782 H   0  0  0  0  0  0  0  0  0  0  0  0
    9.9001    2.3189   -7.9601 H   0  0  0  0  0  0  0  0  0  0  0  0
    8.6058    3.6533   -6.1133 H   0  0  0  0  0  0  0  0  0  0  0  0
    7.1758    2.5343   -1.3744 H   0  0  0  0  0  0  0  0  0  0  0  0
    6.2697    4.7259   -0.6166 H   0  0  0  0  0  0  0  0  0  0  0  0
    6.4613    6.1652   -5.6359 H   0  0  0  0  0  0  0  0  0  0  0  0
    3.7853    6.2989   -3.3046 H   0  0  0  0  0  0  0  0  0  0  0  0
    2.1686    8.1282   -3.0830 H   0  0  0  0  0  0  0  0  0  0  0  0
    2.5543   10.2894   -4.2399 H   0  0  0  0  0  0  0  0  0  0  0  0
    4.5773   10.5993   -5.6338 H   0  0  0  0  0  0  0  0  0  0  0  0
    4.8091    1.4621   -2.7105 H   0  0  0  0  0  0  0  0  0  0  0  0
  1  2  2  0  0  0  0
  2  3  1  0  0  0  0
  2 10  1  0  0  0  0
  3  4  1  0  0  0  0
  3 39  1  0  0  0  0
  3 40  1  0  0  0  0
  4  5  1  0  0  0  0
  4  9  2  0  0  0  0
  5  6  2  0  0  0  0
  5 41  1  0  0  0  0
  6  7  1  0  0  0  0
  6 42  1  0  0  0  0
  7  8  2  0  0  0  0
  7 43  1  0  0  0  0
  8  9  1  0  0  0  0
  8 44  1  0  0  0  0
  9 45  1  0  0  0  0
 10 11  1  0  0  0  0
 10 46  1  0  0  0  0
 11 12  1  0  0  0  0
 11 38  2  0  0  0  0
 12 13  2  0  0  0  0
 12 47  1  0  0  0  0
 13 14  1  0  0  0  0
 13 48  1  0  0  0  0
 14 15  2  0  0  0  0
 14 49  1  0  0  0  0
 15 16  1  0  0  0  0
 15 38  1  0  0  0  0
 16 17  1  0  0  0  0
 16 23  2  0  0  0  0
 17 18  2  0  0  0  0
 18 19  1  0  0  0  0
 18 22  1  0  0  0  0
 19 20  1  0  0  0  0
 20 21  2  0  0  0  0
 20 50  1  0  0  0  0
 21 22  1  0  0  0  0
 21 51  1  0  0  0  0
 22 23  1  0  0  0  0
 23 24  1  0  0  0  0
 24 25  1  0  0  0  0
 24 37  2  0  0  0  0
 25 26  2  0  0  0  0
 25 52  1  0  0  0  0
 26 27  1  0  0  0  0
 26 53  1  0  0  0  0
 27 28  2  0  0  0  0
 28 29  1  0  0  0  0
 28 37  1  0  0  0  0
 29 30  1  0  0  0  0
 29 54  1  0  0  0  0
 30 31  1  0  0  0  0
 30 35  2  0  0  0  0
 31 32  2  0  0  0  0
 31 55  1  0  0  0  0
 32 33  1  0  0  0  0
 32 56  1  0  0  0  0
 33 34  2  0  0  0  0
 33 57  1  0  0  0  0
 34 35  1  0  0  0  0
 34 58  1  0  0  0  0
 35 36  1  0  0  0  0
 38 59  1  0  0  0  0
M  END
$$$$
