CHEMBL296430
 OpenBabel04072215363D

 45 48  0  0  0  0  0  0  0  0999 V2000
    3.3832   -3.9875   -6.8761 F   0  0  0  0  0  0  0  0  0  0  0  0
    2.2159   -3.2873   -6.8943 C   0  0  0  0  0  0  0  0  0  0  0  0
    1.8716   -3.1668   -8.2062 F   0  0  0  0  0  0  0  0  0  0  0  0
    1.2800   -4.1027   -6.3355 F   0  0  0  0  0  0  0  0  0  0  0  0
    2.2981   -1.9503   -6.1990 C   0  0  0  0  0  0  0  0  0  0  0  0
    3.4894   -1.5254   -5.5820 C   0  0  0  0  0  0  0  0  0  0  0  0
    3.5623   -0.2756   -4.9629 C   0  0  0  0  0  0  0  0  0  0  0  0
    4.7462    0.1964   -4.3864 N   0  0  0  0  0  0  0  0  0  0  0  0
    5.0751    1.5419   -4.2039 C   0  0  0  0  0  0  0  0  0  0  0  0
    4.6068    2.4440   -5.0798 N   0  0  0  0  0  0  0  0  0  0  0  0
    4.7966    3.7416   -4.8134 C   0  0  0  0  0  0  0  0  0  0  0  0
    5.4324    4.1901   -3.6858 C   0  0  0  0  0  0  0  0  0  0  0  0
    5.9506    3.2023   -2.8769 C   0  0  0  0  0  0  0  0  0  0  0  0
    6.7252    3.5793   -1.7432 N   0  0  0  0  0  0  0  0  0  0  0  0
    6.5554    4.7345   -1.0037 C   0  0  0  0  0  0  0  0  0  0  0  0
    7.4099    4.6249    0.0623 C   0  0  0  0  0  0  0  0  0  0  0  0
    8.1533    3.4852   -0.0333 N   0  0  0  0  0  0  0  0  0  0  0  0
    7.7828    2.8797   -1.1553 C   0  0  0  0  0  0  0  0  0  0  0  0
    8.4682    1.6924   -1.7036 C   0  0  0  0  0  0  0  0  0  0  0  0
    9.0373    0.7583   -0.8283 C   0  0  0  0  0  0  0  0  0  0  0  0
    9.6637   -0.3930   -1.3175 C   0  0  0  0  0  0  0  0  0  0  0  0
    9.7204   -0.6323   -2.6891 C   0  0  0  0  0  0  0  0  0  0  0  0
    9.1982    0.3028   -3.5746 C   0  0  0  0  0  0  0  0  0  0  0  0
    8.6166    1.4724   -3.0830 C   0  0  0  0  0  0  0  0  0  0  0  0
    5.7903    1.8808   -3.1312 N   0  0  0  0  0  0  0  0  0  0  0  0
    2.3985    0.5092   -4.9169 C   0  0  0  0  0  0  0  0  0  0  0  0
    1.2124    0.1288   -5.5378 C   0  0  0  0  0  0  0  0  0  0  0  0
    0.0404    1.0799   -5.5567 C   0  0  0  0  0  0  0  0  0  0  0  0
    0.2896    2.2721   -4.9436 F   0  0  0  0  0  0  0  0  0  0  0  0
   -0.3582    1.3938   -6.8200 F   0  0  0  0  0  0  0  0  0  0  0  0
   -1.0537    0.5648   -4.9335 F   0  0  0  0  0  0  0  0  0  0  0  0
    1.1704   -1.1084   -6.1842 C   0  0  0  0  0  0  0  0  0  0  0  0
    4.3673   -2.1693   -5.6013 H   0  0  0  0  0  0  0  0  0  0  0  0
    5.5670   -0.3882   -4.3840 H   0  0  0  0  0  0  0  0  0  0  0  0
    4.4150    4.4259   -5.5634 H   0  0  0  0  0  0  0  0  0  0  0  0
    5.5740    5.2473   -3.5233 H   0  0  0  0  0  0  0  0  0  0  0  0
    5.8071    5.4780   -1.2374 H   0  0  0  0  0  0  0  0  0  0  0  0
    7.5264    5.3077    0.8949 H   0  0  0  0  0  0  0  0  0  0  0  0
    8.9940    0.9267    0.2464 H   0  0  0  0  0  0  0  0  0  0  0  0
   10.1027   -1.1049   -0.6238 H   0  0  0  0  0  0  0  0  0  0  0  0
   10.1839   -1.5387   -3.0679 H   0  0  0  0  0  0  0  0  0  0  0  0
    9.2419    0.1313   -4.6466 H   0  0  0  0  0  0  0  0  0  0  0  0
    8.2564    2.1978   -3.8068 H   0  0  0  0  0  0  0  0  0  0  0  0
    2.4198    1.4616   -4.3870 H   0  0  0  0  0  0  0  0  0  0  0  0
    0.2506   -1.4266   -6.6811 H   0  0  0  0  0  0  0  0  0  0  0  0
  1  2  1  0  0  0  0
  2  3  1  0  0  0  0
  2  4  1  0  0  0  0
  2  5  1  0  0  0  0
  5  6  1  0  0  0  0
  5 32  2  0  0  0  0
  6  7  2  0  0  0  0
  6 33  1  0  0  0  0
  7  8  1  0  0  0  0
  7 26  1  0  0  0  0
  8  9  1  0  0  0  0
  8 34  1  0  0  0  0
  9 10  1  0  0  0  0
  9 25  2  0  0  0  0
 10 11  2  0  0  0  0
 11 12  1  0  0  0  0
 11 35  1  0  0  0  0
 12 13  2  0  0  0  0
 12 36  1  0  0  0  0
 13 14  1  0  0  0  0
 13 25  1  0  0  0  0
 14 15  1  0  0  0  0
 14 18  1  0  0  0  0
 15 16  2  0  0  0  0
 15 37  1  0  0  0  0
 16 17  1  0  0  0  0
 16 38  1  0  0  0  0
 17 18  2  0  0  0  0
 18 19  1  0  0  0  0
 19 20  1  0  0  0  0
 19 24  2  0  0  0  0
 20 21  2  0  0  0  0
 20 39  1  0  0  0  0
 21 22  1  0  0  0  0
 21 40  1  0  0  0  0
 22 23  2  0  0  0  0
 22 41  1  0  0  0  0
 23 24  1  0  0  0  0
 23 42  1  0  0  0  0
 24 43  1  0  0  0  0
 26 27  2  0  0  0  0
 26 44  1  0  0  0  0
 27 28  1  0  0  0  0
 27 32  1  0  0  0  0
 28 29  1  0  0  0  0
 28 30  1  0  0  0  0
 28 31  1  0  0  0  0
 32 45  1  0  0  0  0
M  END
$$$$
