CHEMBL269886
 OpenBabel04072215363D

 45 48  0  0  0  0  0  0  0  0999 V2000
    1.2246    2.0585    3.2015 N   0  0  0  0  0  0  0  0  0  0  0  0
    1.4882    0.9586    2.4734 C   0  0  0  0  0  0  0  0  0  0  0  0
    1.8848   -0.1780    3.0523 N   0  0  0  0  0  0  0  0  0  0  0  0
    2.0780   -1.0765    2.0310 O   0  0  0  0  0  0  0  0  0  0  0  0
    1.7840   -0.4893    0.8464 C   0  0  0  0  0  0  0  0  0  0  0  0
    1.8681   -1.1311   -0.3883 C   0  0  0  0  0  0  0  0  0  0  0  0
    1.5066   -0.3812   -1.5004 C   0  0  0  0  0  0  0  0  0  0  0  0
    1.0897    0.9453   -1.3610 C   0  0  0  0  0  0  0  0  0  0  0  0
    1.0145    1.5978   -0.1011 C   0  0  0  0  0  0  0  0  0  0  0  0
    0.5553    2.9974   -0.0040 C   0  0  0  0  0  0  0  0  0  0  0  0
   -0.3543    3.3879    0.9820 C   0  0  0  0  0  0  0  0  0  0  0  0
   -0.7246    4.7258    1.1480 C   0  0  0  0  0  0  0  0  0  0  0  0
   -0.2697    5.7141    0.2807 C   0  0  0  0  0  0  0  0  0  0  0  0
   -0.6456    7.0760    0.4023 N   0  0  0  0  0  0  0  0  0  0  0  0
   -1.2492    7.6284    1.5190 C   0  0  0  0  0  0  0  0  0  0  0  0
   -1.3626    7.0624    2.6051 O   0  0  0  0  0  0  0  0  0  0  0  0
   -1.7663    8.8936    1.2581 N   0  0  0  0  0  0  0  0  0  0  0  0
   -2.5001    9.5789    2.2580 C   0  0  0  0  0  0  0  0  0  0  0  0
   -2.0692    9.6122    3.5883 C   0  0  0  0  0  0  0  0  0  0  0  0
   -2.8675   10.1807    4.5812 C   0  0  0  0  0  0  0  0  0  0  0  0
   -4.1191   10.7215    4.2591 C   0  0  0  0  0  0  0  0  0  0  0  0
   -5.0262   11.2711    5.3324 C   0  0  0  0  0  0  0  0  0  0  0  0
   -4.4848   11.2341    6.5815 F   0  0  0  0  0  0  0  0  0  0  0  0
   -5.3605   12.5714    5.1102 F   0  0  0  0  0  0  0  0  0  0  0  0
   -6.2045   10.5939    5.4155 F   0  0  0  0  0  0  0  0  0  0  0  0
   -4.5283   10.7225    2.9151 C   0  0  0  0  0  0  0  0  0  0  0  0
   -3.7131   10.1766    1.9151 C   0  0  0  0  0  0  0  0  0  0  0  0
    0.5597    5.3322   -0.7768 C   0  0  0  0  0  0  0  0  0  0  0  0
    0.9779    3.9922   -0.9043 C   0  0  0  0  0  0  0  0  0  0  0  0
    1.3840    0.8276    1.0467 C   0  0  0  0  0  0  0  0  0  0  0  0
    1.4442    2.0284    4.1917 H   0  0  0  0  0  0  0  0  0  0  0  0
    1.2862    2.9893    2.8013 H   0  0  0  0  0  0  0  0  0  0  0  0
    2.1908   -2.1623   -0.4649 H   0  0  0  0  0  0  0  0  0  0  0  0
    1.5410   -0.8352   -2.4888 H   0  0  0  0  0  0  0  0  0  0  0  0
    0.7894    1.4810   -2.2604 H   0  0  0  0  0  0  0  0  0  0  0  0
   -0.7808    2.6575    1.6641 H   0  0  0  0  0  0  0  0  0  0  0  0
   -1.3899    4.9456    1.9779 H   0  0  0  0  0  0  0  0  0  0  0  0
   -0.2867    7.7215   -0.2808 H   0  0  0  0  0  0  0  0  0  0  0  0
   -2.0767    9.0225    0.3073 H   0  0  0  0  0  0  0  0  0  0  0  0
   -1.1124    9.1753    3.8711 H   0  0  0  0  0  0  0  0  0  0  0  0
   -2.5169   10.1679    5.6120 H   0  0  0  0  0  0  0  0  0  0  0  0
   -5.5051   11.1234    2.6465 H   0  0  0  0  0  0  0  0  0  0  0  0
   -4.0777   10.1565    0.8925 H   0  0  0  0  0  0  0  0  0  0  0  0
    0.9107    6.0603   -1.5029 H   0  0  0  0  0  0  0  0  0  0  0  0
    1.6495    3.7424   -1.7238 H   0  0  0  0  0  0  0  0  0  0  0  0
  1  2  1  0  0  0  0
  1 31  1  0  0  0  0
  1 32  1  0  0  0  0
  2  3  2  0  0  0  0
  2 30  1  0  0  0  0
  3  4  1  0  0  0  0
  4  5  1  0  0  0  0
  5  6  1  0  0  0  0
  5 30  2  0  0  0  0
  6  7  2  0  0  0  0
  6 33  1  0  0  0  0
  7  8  1  0  0  0  0
  7 34  1  0  0  0  0
  8  9  2  0  0  0  0
  8 35  1  0  0  0  0
  9 10  1  0  0  0  0
  9 30  1  0  0  0  0
 10 11  1  0  0  0  0
 10 29  2  0  0  0  0
 11 12  2  0  0  0  0
 11 36  1  0  0  0  0
 12 13  1  0  0  0  0
 12 37  1  0  0  0  0
 13 14  1  0  0  0  0
 13 28  2  0  0  0  0
 14 15  1  0  0  0  0
 14 38  1  0  0  0  0
 15 16  2  0  0  0  0
 15 17  1  0  0  0  0
 17 18  1  0  0  0  0
 17 39  1  0  0  0  0
 18 19  1  0  0  0  0
 18 27  2  0  0  0  0
 19 20  2  0  0  0  0
 19 40  1  0  0  0  0
 20 21  1  0  0  0  0
 20 41  1  0  0  0  0
 21 22  1  0  0  0  0
 21 26  2  0  0  0  0
 22 23  1  0  0  0  0
 22 24  1  0  0  0  0
 22 25  1  0  0  0  0
 26 27  1  0  0  0  0
 26 42  1  0  0  0  0
 27 43  1  0  0  0  0
 28 29  1  0  0  0  0
 28 44  1  0  0  0  0
 29 45  1  0  0  0  0
M  END
$$$$
