CHEMBL3781610
 OpenBabel04072215373D

 56 60  0  0  0  0  0  0  0  0999 V2000
    1.4731    4.1648    1.3175 C   0  0  0  0  0  0  0  0  0  0  0  0
    2.6484    4.2476    0.5220 O   0  0  0  0  0  0  0  0  0  0  0  0
    3.2888    3.0726    0.2364 C   0  0  0  0  0  0  0  0  0  0  0  0
    2.9289    1.8086    0.6978 C   0  0  0  0  0  0  0  0  0  0  0  0
    3.6681    0.6891    0.3078 C   0  0  0  0  0  0  0  0  0  0  0  0
    4.7703    0.8302   -0.5403 C   0  0  0  0  0  0  0  0  0  0  0  0
    5.1641    2.0932   -0.9905 C   0  0  0  0  0  0  0  0  0  0  0  0
    6.2553    2.1968   -1.8912 N   0  0  0  0  0  0  0  0  0  0  0  0
    7.0783    3.3513   -2.0525 C   0  0  0  0  0  0  0  0  0  0  0  0
    7.5169    4.0769   -0.9410 C   0  0  0  0  0  0  0  0  0  0  0  0
    8.2794    5.1843   -1.0044 N   0  0  0  0  0  0  0  0  0  0  0  0
    8.6357    5.5753   -2.2474 C   0  0  0  0  0  0  0  0  0  0  0  0
    8.3060    4.9239   -3.4219 C   0  0  0  0  0  0  0  0  0  0  0  0
    8.7392    5.4059   -4.6026 N   0  0  0  0  0  0  0  0  0  0  0  0
    8.3908    4.6960   -5.6971 C   0  0  0  0  0  0  0  0  0  0  0  0
    7.6230    3.5376   -5.6523 C   0  0  0  0  0  0  0  0  0  0  0  0
    7.3079    2.7597   -6.8683 C   0  0  0  0  0  0  0  0  0  0  0  0
    7.1302    1.3720   -6.8250 C   0  0  0  0  0  0  0  0  0  0  0  0
    6.9135    0.6242   -7.9964 C   0  0  0  0  0  0  0  0  0  0  0  0
    6.8541    1.2187   -9.2648 C   0  0  0  0  0  0  0  0  0  0  0  0
    6.6404    0.4766  -10.4093 N   0  0  0  0  0  0  0  0  0  0  0  0
    5.9826    1.0299  -11.5943 C   0  0  0  0  0  0  0  0  0  0  0  0
    4.8347    0.1017  -11.9977 C   0  0  0  0  0  0  0  0  0  0  0  0
    5.3053   -1.3417  -12.1736 C   0  0  0  0  0  0  0  0  0  0  0  0
    6.0746   -1.8320  -10.9459 C   0  0  0  0  0  0  0  0  0  0  0  0
    7.1988   -0.8668  -10.5762 C   0  0  0  0  0  0  0  0  0  0  0  0
    7.0014    2.6086   -9.2984 C   0  0  0  0  0  0  0  0  0  0  0  0
    7.2163    3.3625   -8.1339 C   0  0  0  0  0  0  0  0  0  0  0  0
    7.1764    3.0628   -4.4534 N   0  0  0  0  0  0  0  0  0  0  0  0
    7.5151    3.7570   -3.3266 C   0  0  0  0  0  0  0  0  0  0  0  0
    4.3987    3.2044   -0.6063 C   0  0  0  0  0  0  0  0  0  0  0  0
    1.0445    5.1693    1.3867 H   0  0  0  0  0  0  0  0  0  0  0  0
    1.7109    3.8312    2.3328 H   0  0  0  0  0  0  0  0  0  0  0  0
    0.7225    3.5168    0.8530 H   0  0  0  0  0  0  0  0  0  0  0  0
    2.0783    1.6593    1.3543 H   0  0  0  0  0  0  0  0  0  0  0  0
    3.3829   -0.2971    0.6658 H   0  0  0  0  0  0  0  0  0  0  0  0
    5.3366   -0.0517   -0.8292 H   0  0  0  0  0  0  0  0  0  0  0  0
    5.9859    1.8547   -2.8191 H   0  0  0  0  0  0  0  0  0  0  0  0
    7.2511    3.7666    0.0667 H   0  0  0  0  0  0  0  0  0  0  0  0
    9.2369    6.4802   -2.2866 H   0  0  0  0  0  0  0  0  0  0  0  0
    8.7840    5.0917   -6.6275 H   0  0  0  0  0  0  0  0  0  0  0  0
    7.1736    0.8462   -5.8726 H   0  0  0  0  0  0  0  0  0  0  0  0
    6.7608   -0.4465   -7.8879 H   0  0  0  0  0  0  0  0  0  0  0  0
    6.7085    1.1185  -12.4119 H   0  0  0  0  0  0  0  0  0  0  0  0
    5.5582    2.0249  -11.4248 H   0  0  0  0  0  0  0  0  0  0  0  0
    4.3756    0.4599  -12.9257 H   0  0  0  0  0  0  0  0  0  0  0  0
    4.0592    0.1323  -11.2216 H   0  0  0  0  0  0  0  0  0  0  0  0
    5.9493   -1.4083  -13.0587 H   0  0  0  0  0  0  0  0  0  0  0  0
    4.4421   -1.9922  -12.3534 H   0  0  0  0  0  0  0  0  0  0  0  0
    6.4875   -2.8276  -11.1423 H   0  0  0  0  0  0  0  0  0  0  0  0
    5.3829   -1.9277  -10.0998 H   0  0  0  0  0  0  0  0  0  0  0  0
    7.9452   -0.8436  -11.3811 H   0  0  0  0  0  0  0  0  0  0  0  0
    7.7263   -1.2339   -9.6899 H   0  0  0  0  0  0  0  0  0  0  0  0
    6.9858    3.1419  -10.2451 H   0  0  0  0  0  0  0  0  0  0  0  0
    7.3122    4.4396   -8.2514 H   0  0  0  0  0  0  0  0  0  0  0  0
    4.6485    4.1981   -0.9697 H   0  0  0  0  0  0  0  0  0  0  0  0
  1  2  1  0  0  0  0
  1 32  1  0  0  0  0
  1 33  1  0  0  0  0
  1 34  1  0  0  0  0
  2  3  1  0  0  0  0
  3  4  1  0  0  0  0
  3 31  2  0  0  0  0
  4  5  2  0  0  0  0
  4 35  1  0  0  0  0
  5  6  1  0  0  0  0
  5 36  1  0  0  0  0
  6  7  2  0  0  0  0
  6 37  1  0  0  0  0
  7  8  1  0  0  0  0
  7 31  1  0  0  0  0
  8  9  1  0  0  0  0
  8 38  1  0  0  0  0
  9 10  1  0  0  0  0
  9 30  2  0  0  0  0
 10 11  2  0  0  0  0
 10 39  1  0  0  0  0
 11 12  1  0  0  0  0
 12 13  2  0  0  0  0
 12 40  1  0  0  0  0
 13 14  1  0  0  0  0
 13 30  1  0  0  0  0
 14 15  2  0  0  0  0
 15 16  1  0  0  0  0
 15 41  1  0  0  0  0
 16 17  1  0  0  0  0
 16 29  2  0  0  0  0
 17 18  1  0  0  0  0
 17 28  2  0  0  0  0
 18 19  2  0  0  0  0
 18 42  1  0  0  0  0
 19 20  1  0  0  0  0
 19 43  1  0  0  0  0
 20 21  1  0  0  0  0
 20 27  2  0  0  0  0
 21 22  1  0  0  0  0
 21 26  1  0  0  0  0
 22 23  1  0  0  0  0
 22 44  1  0  0  0  0
 22 45  1  0  0  0  0
 23 24  1  0  0  0  0
 23 46  1  0  0  0  0
 23 47  1  0  0  0  0
 24 25  1  0  0  0  0
 24 48  1  0  0  0  0
 24 49  1  0  0  0  0
 25 26  1  0  0  0  0
 25 50  1  0  0  0  0
 25 51  1  0  0  0  0
 26 52  1  0  0  0  0
 26 53  1  0  0  0  0
 27 28  1  0  0  0  0
 27 54  1  0  0  0  0
 28 55  1  0  0  0  0
 29 30  1  0  0  0  0
 31 56  1  0  0  0  0
M  END
$$$$
