CHEMBL3975705
 OpenBabel04072215373D

 41 44  0  0  0  0  0  0  0  0999 V2000
    1.3170   -0.5235   -0.8293 O   0  0  0  0  0  0  0  0  0  0  0  0
    2.0966   -0.0834    0.0085 C   0  0  0  0  0  0  0  0  0  0  0  0
    2.2139    1.3860    0.2222 C   0  0  0  0  0  0  0  0  0  0  0  0
    2.4462    1.9051    1.4987 C   0  0  0  0  0  0  0  0  0  0  0  0
    2.5844    3.2927    1.6712 C   0  0  0  0  0  0  0  0  0  0  0  0
    2.4911    4.1524    0.5772 C   0  0  0  0  0  0  0  0  0  0  0  0
    2.2460    3.6229   -0.7012 C   0  0  0  0  0  0  0  0  0  0  0  0
    2.1056    2.2430   -0.8759 C   0  0  0  0  0  0  0  0  0  0  0  0
    2.9828   -1.0244    0.7436 C   0  0  0  0  0  0  0  0  0  0  0  0
    2.4971   -2.2515    1.2229 C   0  0  0  0  0  0  0  0  0  0  0  0
    3.3450   -3.1475    1.9177 C   0  0  0  0  0  0  0  0  0  0  0  0
    4.7265   -2.8668    1.9461 C   0  0  0  0  0  0  0  0  0  0  0  0
    5.9622   -3.3857    2.4799 C   0  0  0  0  0  0  0  0  0  0  0  0
    6.5147   -3.1709    3.8155 C   0  0  0  0  0  0  0  0  0  0  0  0
    6.0841   -2.1911    4.6340 C   0  0  0  0  0  0  0  0  0  0  0  0
    7.0090   -1.2429    5.3047 C   0  0  0  0  0  0  0  0  0  0  0  0
    8.1251   -0.7140    4.6187 C   0  0  0  0  0  0  0  0  0  0  0  0
    8.8294    0.3829    5.1252 C   0  0  0  0  0  0  0  0  0  0  0  0
    8.4392    0.9624    6.3279 C   0  0  0  0  0  0  0  0  0  0  0  0
    7.3584    0.4323    7.0327 C   0  0  0  0  0  0  0  0  0  0  0  0
    6.6465   -0.6614    6.5205 C   0  0  0  0  0  0  0  0  0  0  0  0
    6.8928   -3.1868    1.5195 N   0  0  0  0  0  0  0  0  0  0  0  0
    6.5011   -2.0002    1.0228 N   0  0  0  0  0  0  0  0  0  0  0  0
    5.1704   -1.7562    1.2334 C   0  0  0  0  0  0  0  0  0  0  0  0
    4.3483   -0.7300    0.7840 C   0  0  0  0  0  0  0  0  0  0  0  0
    2.5137    1.2573    2.3705 H   0  0  0  0  0  0  0  0  0  0  0  0
    2.7585    3.6955    2.6671 H   0  0  0  0  0  0  0  0  0  0  0  0
    2.6007    5.2152    0.7127 H   0  0  0  0  0  0  0  0  0  0  0  0
    2.1755    4.2928   -1.5551 H   0  0  0  0  0  0  0  0  0  0  0  0
    1.9225    1.8458   -1.8682 H   0  0  0  0  0  0  0  0  0  0  0  0
    1.4561   -2.5210    1.0422 H   0  0  0  0  0  0  0  0  0  0  0  0
    2.9529   -4.0907    2.2904 H   0  0  0  0  0  0  0  0  0  0  0  0
    7.5576   -3.4838    3.8915 H   0  0  0  0  0  0  0  0  0  0  0  0
    5.0693   -1.8117    4.5614 H   0  0  0  0  0  0  0  0  0  0  0  0
    8.4215   -1.1118    3.6499 H   0  0  0  0  0  0  0  0  0  0  0  0
    9.6614    0.8031    4.5655 H   0  0  0  0  0  0  0  0  0  0  0  0
    8.9634    1.8375    6.7091 H   0  0  0  0  0  0  0  0  0  0  0  0
    7.0453    0.8917    7.9656 H   0  0  0  0  0  0  0  0  0  0  0  0
    5.7811   -1.0266    7.0640 H   0  0  0  0  0  0  0  0  0  0  0  0
    7.1488   -1.4699    0.4566 H   0  0  0  0  0  0  0  0  0  0  0  0
    4.7599    0.1749    0.3507 H   0  0  0  0  0  0  0  0  0  0  0  0
  1  2  2  0  0  0  0
  2  3  1  0  0  0  0
  2  9  1  0  0  0  0
  3  4  1  0  0  0  0
  3  8  2  0  0  0  0
  4  5  2  0  0  0  0
  4 26  1  0  0  0  0
  5  6  1  0  0  0  0
  5 27  1  0  0  0  0
  6  7  2  0  0  0  0
  6 28  1  0  0  0  0
  7  8  1  0  0  0  0
  7 29  1  0  0  0  0
  8 30  1  0  0  0  0
  9 10  1  0  0  0  0
  9 25  2  0  0  0  0
 10 11  2  0  0  0  0
 10 31  1  0  0  0  0
 11 12  1  0  0  0  0
 11 32  1  0  0  0  0
 12 13  1  0  0  0  0
 12 24  2  0  0  0  0
 13 14  1  0  0  0  0
 13 22  2  0  0  0  0
 14 15  2  0  0  0  0
 14 33  1  0  0  0  0
 15 16  1  0  0  0  0
 15 34  1  0  0  0  0
 16 17  1  0  0  0  0
 16 21  2  0  0  0  0
 17 18  2  0  0  0  0
 17 35  1  0  0  0  0
 18 19  1  0  0  0  0
 18 36  1  0  0  0  0
 19 20  2  0  0  0  0
 19 37  1  0  0  0  0
 20 21  1  0  0  0  0
 20 38  1  0  0  0  0
 21 39  1  0  0  0  0
 22 23  1  0  0  0  0
 23 24  1  0  0  0  0
 23 40  1  0  0  0  0
 24 25  1  0  0  0  0
 25 41  1  0  0  0  0
M  END
$$$$
