CHEMBL3526621
 OpenBabel04072215363D

 47 50  0  0  1  0  0  0  0  0999 V2000
    0.9755   -0.2721    0.0592 C   0  0  0  0  0  0  0  0  0  0  0  0
    2.4615   -0.2138    0.0854 C   0  0  0  0  0  0  0  0  0  0  0  0
    3.2915    0.9455    0.0308 C   0  0  0  0  0  0  0  0  0  0  0  0
    2.8541    2.2227   -0.0988 O   0  0  0  0  0  0  0  0  0  0  0  0
    3.8624    3.1246   -0.5875 C   0  0  0  0  0  0  0  0  0  0  0  0
    3.2144    4.3974   -1.1442 C   0  0  1  0  0  0  0  0  0  0  0  0
    2.1787    4.0972   -2.2180 C   0  0  0  0  0  0  0  0  0  0  0  0
    2.5921    5.1390   -0.0964 O   0  0  0  0  0  0  0  0  0  0  0  0
    4.6013    0.5372    0.1275 C   0  0  0  0  0  0  0  0  0  0  0  0
    4.6132   -0.8258    0.1446 N   0  0  0  0  0  0  0  0  0  0  0  0
    5.7143   -1.5951    0.1460 N   0  0  0  0  0  0  0  0  0  0  0  0
    5.4755   -2.8700    0.1162 C   0  0  0  0  0  0  0  0  0  0  0  0
    4.2464   -3.4760    0.0775 N   0  0  0  0  0  0  0  0  0  0  0  0
    3.2123   -2.7034    0.0677 C   0  0  0  0  0  0  0  0  0  0  0  0
    1.9002   -3.1322   -0.0402 O   0  0  0  0  0  0  0  0  0  0  0  0
    1.6592   -4.4151   -0.5717 C   0  0  0  0  0  0  0  0  0  0  0  0
    2.3314   -4.8596   -1.7115 C   0  0  0  0  0  0  0  0  0  0  0  0
    2.0563   -6.1151   -2.2575 C   0  0  0  0  0  0  0  0  0  0  0  0
    1.0544   -6.8806   -1.6504 C   0  0  0  0  0  0  0  0  0  0  0  0
    0.5820   -8.1314   -1.9714 N   0  0  0  0  0  0  0  0  0  0  0  0
   -0.4443   -8.4906   -1.1330 C   0  0  0  0  0  0  0  0  0  0  0  0
   -1.1249   -9.8011   -1.2617 C   0  0  0  0  0  0  0  0  0  0  0  0
   -1.1025  -10.1540   -2.6380 O   0  0  0  0  0  0  0  0  0  0  0  0
   -0.6161   -7.4581   -0.2323 C   0  0  0  0  0  0  0  0  0  0  0  0
    0.3327   -6.4406   -0.5394 C   0  0  0  0  0  0  0  0  0  0  0  0
    0.6462   -5.1815    0.0088 C   0  0  0  0  0  0  0  0  0  0  0  0
   -0.0289   -4.7163    1.0738 F   0  0  0  0  0  0  0  0  0  0  0  0
    3.3359   -1.2914    0.1127 C   0  0  0  0  0  0  0  0  0  0  0  0
    0.5273    0.7253    0.0691 H   0  0  0  0  0  0  0  0  0  0  0  0
    0.6017   -0.8154    0.9342 H   0  0  0  0  0  0  0  0  0  0  0  0
    0.6279   -0.7906   -0.8405 H   0  0  0  0  0  0  0  0  0  0  0  0
    4.4382    2.6606   -1.3989 H   0  0  0  0  0  0  0  0  0  0  0  0
    4.5283    3.3847    0.2442 H   0  0  0  0  0  0  0  0  0  0  0  0
    3.9992    5.0356   -1.5658 H   0  0  0  0  0  0  0  0  0  0  0  0
    1.3400    3.5213   -1.8131 H   0  0  0  0  0  0  0  0  0  0  0  0
    2.6215    3.5377   -3.0479 H   0  0  0  0  0  0  0  0  0  0  0  0
    1.7575    5.0286   -2.6101 H   0  0  0  0  0  0  0  0  0  0  0  0
    1.9879    4.5230    0.3577 H   0  0  0  0  0  0  0  0  0  0  0  0
    5.5361    1.0792    0.1467 H   0  0  0  0  0  0  0  0  0  0  0  0
    6.3440   -3.5500    0.1035 H   0  0  0  0  0  0  0  0  0  0  0  0
    3.0857   -4.2392   -2.1882 H   0  0  0  0  0  0  0  0  0  0  0  0
    2.5979   -6.4732   -3.1272 H   0  0  0  0  0  0  0  0  0  0  0  0
    0.9192   -8.7079   -2.7317 H   0  0  0  0  0  0  0  0  0  0  0  0
   -2.1634   -9.7609   -0.9193 H   0  0  0  0  0  0  0  0  0  0  0  0
   -0.5922  -10.5703   -0.6954 H   0  0  0  0  0  0  0  0  0  0  0  0
   -1.7976   -9.6225   -3.0631 H   0  0  0  0  0  0  0  0  0  0  0  0
   -1.3388   -7.4318    0.5734 H   0  0  0  0  0  0  0  0  0  0  0  0
  1  2  1  0  0  0  0
  1 29  1  0  0  0  0
  1 30  1  0  0  0  0
  1 31  1  0  0  0  0
  2  3  1  0  0  0  0
  2 28  2  0  0  0  0
  3  4  1  0  0  0  0
  3  9  2  0  0  0  0
  4  5  1  0  0  0  0
  5  6  1  0  0  0  0
  5 32  1  0  0  0  0
  5 33  1  0  0  0  0
  6  7  1  0  0  0  0
  6  8  1  0  0  0  0
  6 34  1  6  0  0  0
  7 35  1  0  0  0  0
  7 36  1  0  0  0  0
  7 37  1  0  0  0  0
  8 38  1  0  0  0  0
  9 10  1  0  0  0  0
  9 39  1  0  0  0  0
 10 11  1  0  0  0  0
 10 28  1  0  0  0  0
 11 12  2  0  0  0  0
 12 13  1  0  0  0  0
 12 40  1  0  0  0  0
 13 14  2  0  0  0  0
 14 15  1  0  0  0  0
 14 28  1  0  0  0  0
 15 16  1  0  0  0  0
 16 17  1  0  0  0  0
 16 26  2  0  0  0  0
 17 18  2  0  0  0  0
 17 41  1  0  0  0  0
 18 19  1  0  0  0  0
 18 42  1  0  0  0  0
 19 20  1  0  0  0  0
 19 25  2  0  0  0  0
 20 21  1  0  0  0  0
 20 43  1  0  0  0  0
 21 22  1  0  0  0  0
 21 24  2  0  0  0  0
 22 23  1  0  0  0  0
 22 44  1  0  0  0  0
 22 45  1  0  0  0  0
 23 46  1  0  0  0  0
 24 25  1  0  0  0  0
 24 47  1  0  0  0  0
 25 26  1  0  0  0  0
 26 27  1  0  0  0  0
M  END
$$$$
