CHEMBL3963347
 OpenBabel04072215373D

 53 57  0  0  0  0  0  0  0  0999 V2000
    6.2638    1.0746   -2.7808 O   0  0  0  0  0  0  0  0  0  0  0  0
    6.2638    0.9591   -1.5590 C   0  0  0  0  0  0  0  0  0  0  0  0
    7.1140    1.6036   -0.6789 N   0  0  0  0  0  0  0  0  0  0  0  0
    8.1617    2.4962   -1.0136 C   0  0  0  0  0  0  0  0  0  0  0  0
    8.5597    2.7737   -2.3260 C   0  0  0  0  0  0  0  0  0  0  0  0
    9.5905    3.6785   -2.5727 C   0  0  0  0  0  0  0  0  0  0  0  0
   10.2507    4.3085   -1.5262 C   0  0  0  0  0  0  0  0  0  0  0  0
    9.8763    4.0290   -0.2159 C   0  0  0  0  0  0  0  0  0  0  0  0
    8.8405    3.1240    0.0397 C   0  0  0  0  0  0  0  0  0  0  0  0
    5.3370   -0.0604   -0.9714 C   0  0  0  0  0  0  0  0  0  0  0  0
    5.2179   -1.2441   -1.7382 C   0  0  0  0  0  0  0  0  0  0  0  0
    4.4463   -2.3164   -1.2962 C   0  0  0  0  0  0  0  0  0  0  0  0
    3.7854   -2.2246   -0.0794 C   0  0  0  0  0  0  0  0  0  0  0  0
    3.8756   -1.0525    0.6758 C   0  0  0  0  0  0  0  0  0  0  0  0
    4.6282    0.0517    0.2368 C   0  0  0  0  0  0  0  0  0  0  0  0
    4.6521    1.4568    1.3414 S   0  0  0  0  0  0  0  0  0  0  0  0
    3.3450    2.5072    0.7102 C   0  0  0  0  0  0  0  0  0  0  0  0
    1.9811    2.2662    0.9427 C   0  0  0  0  0  0  0  0  0  0  0  0
    0.9807    3.1242    0.4201 C   0  0  0  0  0  0  0  0  0  0  0  0
    1.3817    4.3259   -0.1992 C   0  0  0  0  0  0  0  0  0  0  0  0
    0.8485    5.4029   -0.9918 C   0  0  0  0  0  0  0  0  0  0  0  0
    0.3212    5.3378   -2.3431 C   0  0  0  0  0  0  0  0  0  0  0  0
    0.6519    4.3548   -3.2046 C   0  0  0  0  0  0  0  0  0  0  0  0
    0.8628    4.5625   -4.6540 C   0  0  0  0  0  0  0  0  0  0  0  0
    1.2547    3.4858   -5.4466 C   0  0  0  0  0  0  0  0  0  0  0  0
    1.6382    3.7134   -6.7685 C   0  0  0  0  0  0  0  0  0  0  0  0
    1.6423    5.0104   -7.2624 C   0  0  0  0  0  0  0  0  0  0  0  0
    1.2489    6.0274   -6.4095 C   0  0  0  0  0  0  0  0  0  0  0  0
    0.8535    5.8327   -5.1274 N   0  0  0  0  0  0  0  0  0  0  0  0
    1.5960    6.4961   -0.7447 N   0  0  0  0  0  0  0  0  0  0  0  0
    2.7984    5.9465   -0.5284 N   0  0  0  0  0  0  0  0  0  0  0  0
    2.7405    4.6210   -0.2000 C   0  0  0  0  0  0  0  0  0  0  0  0
    3.7426    3.7039    0.1101 C   0  0  0  0  0  0  0  0  0  0  0  0
    6.9624    1.4364    0.3092 H   0  0  0  0  0  0  0  0  0  0  0  0
    8.0903    2.2953   -3.1796 H   0  0  0  0  0  0  0  0  0  0  0  0
    9.8877    3.8922   -3.5940 H   0  0  0  0  0  0  0  0  0  0  0  0
   11.0534    5.0143   -1.7309 H   0  0  0  0  0  0  0  0  0  0  0  0
   10.3932    4.5138    0.6078 H   0  0  0  0  0  0  0  0  0  0  0  0
    8.5723    2.9200    1.0730 H   0  0  0  0  0  0  0  0  0  0  0  0
    5.7484   -1.3382   -2.6870 H   0  0  0  0  0  0  0  0  0  0  0  0
    4.3825   -3.2222   -1.8944 H   0  0  0  0  0  0  0  0  0  0  0  0
    3.2031   -3.0660    0.2889 H   0  0  0  0  0  0  0  0  0  0  0  0
    3.3538   -1.0144    1.6308 H   0  0  0  0  0  0  0  0  0  0  0  0
    1.6736    1.4130    1.5452 H   0  0  0  0  0  0  0  0  0  0  0  0
   -0.0721    2.9100    0.5895 H   0  0  0  0  0  0  0  0  0  0  0  0
    0.0311    6.3064   -2.7538 H   0  0  0  0  0  0  0  0  0  0  0  0
    1.0314    3.4110   -2.8265 H   0  0  0  0  0  0  0  0  0  0  0  0
    1.3038    2.4821   -5.0385 H   0  0  0  0  0  0  0  0  0  0  0  0
    1.9559    2.8853   -7.3958 H   0  0  0  0  0  0  0  0  0  0  0  0
    1.9556    5.2239   -8.2790 H   0  0  0  0  0  0  0  0  0  0  0  0
    1.2573    7.0625   -6.7418 H   0  0  0  0  0  0  0  0  0  0  0  0
    3.6204    6.5372   -0.5851 H   0  0  0  0  0  0  0  0  0  0  0  0
    4.7877    3.9479   -0.0467 H   0  0  0  0  0  0  0  0  0  0  0  0
  1  2  2  0  0  0  0
  2  3  1  0  0  0  0
  2 10  1  0  0  0  0
  3  4  1  0  0  0  0
  3 34  1  0  0  0  0
  4  5  1  0  0  0  0
  4  9  2  0  0  0  0
  5  6  2  0  0  0  0
  5 35  1  0  0  0  0
  6  7  1  0  0  0  0
  6 36  1  0  0  0  0
  7  8  2  0  0  0  0
  7 37  1  0  0  0  0
  8  9  1  0  0  0  0
  8 38  1  0  0  0  0
  9 39  1  0  0  0  0
 10 11  1  0  0  0  0
 10 15  2  0  0  0  0
 11 12  2  0  0  0  0
 11 40  1  0  0  0  0
 12 13  1  0  0  0  0
 12 41  1  0  0  0  0
 13 14  2  0  0  0  0
 13 42  1  0  0  0  0
 14 15  1  0  0  0  0
 14 43  1  0  0  0  0
 15 16  1  0  0  0  0
 16 17  1  0  0  0  0
 17 18  1  0  0  0  0
 17 33  2  0  0  0  0
 18 19  2  0  0  0  0
 18 44  1  0  0  0  0
 19 20  1  0  0  0  0
 19 45  1  0  0  0  0
 20 21  1  0  0  0  0
 20 32  2  0  0  0  0
 21 22  1  0  0  0  0
 21 30  2  0  0  0  0
 22 23  2  0  0  0  0
 22 46  1  0  0  0  0
 23 24  1  0  0  0  0
 23 47  1  0  0  0  0
 24 25  1  0  0  0  0
 24 29  2  0  0  0  0
 25 26  2  0  0  0  0
 25 48  1  0  0  0  0
 26 27  1  0  0  0  0
 26 49  1  0  0  0  0
 27 28  2  0  0  0  0
 27 50  1  0  0  0  0
 28 29  1  0  0  0  0
 28 51  1  0  0  0  0
 30 31  1  0  0  0  0
 31 32  1  0  0  0  0
 31 52  1  0  0  0  0
 32 33  1  0  0  0  0
 33 53  1  0  0  0  0
M  END
$$$$
