CHEMBL4552628
 OpenBabel04072215383D

 46 49  0  0  1  0  0  0  0  0999 V2000
    2.3630   -0.1157   -0.0026 C   0  0  0  0  0  0  0  0  0  0  0  0
    0.8803   -0.2948    0.0333 C   0  0  0  0  0  0  0  0  0  0  0  0
   -0.0927    1.1026    0.0222 S   0  0  0  0  0  0  0  0  0  0  0  0
   -1.5602    0.2059    0.0386 C   0  0  0  0  0  0  0  0  0  0  0  0
   -2.8493    0.9020    0.0662 C   0  0  0  0  0  0  0  0  0  0  0  0
   -3.9386    0.3443    0.0313 O   0  0  0  0  0  0  0  0  0  0  0  0
   -2.7029    2.2599    0.1536 N   0  0  0  0  0  0  0  0  0  0  0  0
   -3.7182    3.3240    0.2304 C   0  0  2  0  0  0  0  0  0  0  0  0
   -2.9532    4.6865    0.2477 C   0  0  2  0  0  0  0  0  0  0  0  0
   -2.0959    4.8607   -0.9363 N   0  0  0  0  0  0  0  0  0  0  0  0
   -2.1004    4.8069    1.5330 C   0  0  0  0  0  0  0  0  0  0  0  0
   -2.9427    4.6388    2.7987 C   0  0  0  0  0  0  0  0  0  0  0  0
   -3.8165    3.3860    2.7737 C   0  0  0  0  0  0  0  0  0  0  0  0
   -4.6170    3.2877    1.4837 C   0  0  0  0  0  0  0  0  0  0  0  0
   -5.4805    4.3440    1.4380 F   0  0  0  0  0  0  0  0  0  0  0  0
   -5.3940    2.1818    1.5138 F   0  0  0  0  0  0  0  0  0  0  0  0
   -1.2960   -1.1505    0.0396 C   0  0  0  0  0  0  0  0  0  0  0  0
    0.1119   -1.4462    0.0574 C   0  0  0  0  0  0  0  0  0  0  0  0
    0.6136   -2.8242    0.0921 C   0  0  0  0  0  0  0  0  0  0  0  0
    1.8202   -3.2495    0.6769 C   0  0  0  0  0  0  0  0  0  0  0  0
    2.0271   -4.5612    0.5553 N   0  0  0  0  0  0  0  0  0  0  0  0
    0.9309   -5.0119   -0.0987 N   0  0  0  0  0  0  0  0  0  0  0  0
    0.6564   -6.3237   -0.4553 C   0  0  0  0  0  0  0  0  0  0  0  0
   -0.4796   -6.6102   -1.0978 C   0  0  0  0  0  0  0  0  0  0  0  0
   -0.9396   -8.1761   -1.5842 Cl  0  0  0  0  0  0  0  0  0  0  0  0
   -1.3727   -5.4549   -1.3888 C   0  0  0  0  0  0  0  0  0  0  0  0
   -1.1430   -4.2170   -1.0694 N   0  0  0  0  0  0  0  0  0  0  0  0
    0.0340   -3.9756   -0.4018 C   0  0  0  0  0  0  0  0  0  0  0  0
    2.6525    0.9348   -0.1175 H   0  0  0  0  0  0  0  0  0  0  0  0
    2.7942   -0.6681   -0.8432 H   0  0  0  0  0  0  0  0  0  0  0  0
    2.8148   -0.4680    0.9289 H   0  0  0  0  0  0  0  0  0  0  0  0
   -1.7401    2.5631    0.1427 H   0  0  0  0  0  0  0  0  0  0  0  0
   -4.3437    3.2432   -0.6660 H   0  0  0  0  0  0  0  0  0  0  0  0
   -3.6809    5.5073    0.2378 H   0  0  0  0  0  0  0  0  0  0  0  0
   -1.5364    4.0365   -1.1407 H   0  0  0  0  0  0  0  0  0  0  0  0
   -1.4530    5.6403   -0.8083 H   0  0  0  0  0  0  0  0  0  0  0  0
   -1.5960    5.7801    1.5647 H   0  0  0  0  0  0  0  0  0  0  0  0
   -1.2998    4.0556    1.5442 H   0  0  0  0  0  0  0  0  0  0  0  0
   -3.5830    5.5213    2.9145 H   0  0  0  0  0  0  0  0  0  0  0  0
   -2.2863    4.6077    3.6762 H   0  0  0  0  0  0  0  0  0  0  0  0
   -4.5025    3.4086    3.6283 H   0  0  0  0  0  0  0  0  0  0  0  0
   -3.1991    2.4886    2.8969 H   0  0  0  0  0  0  0  0  0  0  0  0
   -2.0860   -1.8935    0.0488 H   0  0  0  0  0  0  0  0  0  0  0  0
    2.5676   -2.6690    1.1994 H   0  0  0  0  0  0  0  0  0  0  0  0
    1.4005   -7.0561   -0.1789 H   0  0  0  0  0  0  0  0  0  0  0  0
   -2.3076   -5.6937   -1.9243 H   0  0  0  0  0  0  0  0  0  0  0  0
  1  2  1  0  0  0  0
  1 29  1  0  0  0  0
  1 30  1  0  0  0  0
  1 31  1  0  0  0  0
  2  3  1  0  0  0  0
  2 18  2  0  0  0  0
  3  4  1  0  0  0  0
  4  5  1  0  0  0  0
  4 17  2  0  0  0  0
  5  6  2  0  0  0  0
  5  7  1  0  0  0  0
  7  8  1  0  0  0  0
  7 32  1  0  0  0  0
  8  9  1  0  0  0  0
  8 14  1  0  0  0  0
  8 33  1  6  0  0  0
  9 11  1  0  0  0  0
  9 10  1  0  0  0  0
  9 34  1  1  0  0  0
 10 35  1  0  0  0  0
 10 36  1  0  0  0  0
 11 12  1  0  0  0  0
 11 37  1  0  0  0  0
 11 38  1  0  0  0  0
 12 13  1  0  0  0  0
 12 39  1  0  0  0  0
 12 40  1  0  0  0  0
 13 14  1  0  0  0  0
 13 41  1  0  0  0  0
 13 42  1  0  0  0  0
 14 15  1  0  0  0  0
 14 16  1  0  0  0  0
 17 18  1  0  0  0  0
 17 43  1  0  0  0  0
 18 19  1  0  0  0  0
 19 20  1  0  0  0  0
 19 28  2  0  0  0  0
 20 21  2  0  0  0  0
 20 44  1  0  0  0  0
 21 22  1  0  0  0  0
 22 23  1  0  0  0  0
 22 28  1  0  0  0  0
 23 24  2  0  0  0  0
 23 45  1  0  0  0  0
 24 25  1  0  0  0  0
 24 26  1  0  0  0  0
 26 27  2  0  0  0  0
 26 46  1  0  0  0  0
 27 28  1  0  0  0  0
M  END
$$$$
