CHEMBL1241860
 OpenBabel04072215363D

 36 38  0  0  0  0  0  0  0  0999 V2000
    3.3531    0.4605    1.2282 C   0  0  0  0  0  0  0  0  0  0  0  0
    2.6370    0.0008   -0.0408 C   0  0  0  0  0  0  0  0  0  0  0  0
    1.1190    0.0156    0.1528 C   0  0  0  0  0  0  0  0  0  0  0  0
    3.0290    0.7920   -1.2032 N   0  0  0  0  0  0  0  0  0  0  0  0
    2.8003    2.1224   -1.2231 N   0  0  0  0  0  0  0  0  0  0  0  0
    3.1764    2.5130   -2.4548 C   0  0  0  0  0  0  0  0  0  0  0  0
    2.9799    3.9117   -2.8539 C   0  0  0  0  0  0  0  0  0  0  0  0
    2.6514    4.2487   -4.1756 C   0  0  0  0  0  0  0  0  0  0  0  0
    2.4736    5.5808   -4.5564 C   0  0  0  0  0  0  0  0  0  0  0  0
    2.5608    6.5895   -3.5960 C   0  0  0  0  0  0  0  0  0  0  0  0
    2.3241    7.9919   -3.9677 C   0  0  0  0  0  0  0  0  0  0  0  0
    2.1176    8.3218   -5.1288 O   0  0  0  0  0  0  0  0  0  0  0  0
    2.8459    6.2635   -2.2745 C   0  0  0  0  0  0  0  0  0  0  0  0
    2.9087    7.2221   -1.3390 F   0  0  0  0  0  0  0  0  0  0  0  0
    3.0679    4.9387   -1.9011 C   0  0  0  0  0  0  0  0  0  0  0  0
    3.7210    1.4170   -3.1998 C   0  0  0  0  0  0  0  0  0  0  0  0
    4.2905    1.1638   -4.4580 C   0  0  0  0  0  0  0  0  0  0  0  0
    4.5414    2.1140   -5.4385 N   0  0  0  0  0  0  0  0  0  0  0  0
    4.6439   -0.1015   -4.7683 N   0  0  0  0  0  0  0  0  0  0  0  0
    4.4516   -1.0708   -3.8584 C   0  0  0  0  0  0  0  0  0  0  0  0
    3.9385   -0.9490   -2.6245 N   0  0  0  0  0  0  0  0  0  0  0  0
    3.5929    0.3211   -2.3593 C   0  0  0  0  0  0  0  0  0  0  0  0
    3.0645   -0.1609    2.0836 H   0  0  0  0  0  0  0  0  0  0  0  0
    3.1144    1.5008    1.4761 H   0  0  0  0  0  0  0  0  0  0  0  0
    4.4403    0.3888    1.1105 H   0  0  0  0  0  0  0  0  0  0  0  0
    2.9399   -1.0340   -0.2413 H   0  0  0  0  0  0  0  0  0  0  0  0
    0.7521    1.0213    0.3825 H   0  0  0  0  0  0  0  0  0  0  0  0
    0.8268   -0.6456    0.9744 H   0  0  0  0  0  0  0  0  0  0  0  0
    0.6071   -0.3260   -0.7543 H   0  0  0  0  0  0  0  0  0  0  0  0
    2.5033    3.4779   -4.9289 H   0  0  0  0  0  0  0  0  0  0  0  0
    2.2441    5.8208   -5.5931 H   0  0  0  0  0  0  0  0  0  0  0  0
    2.3391    8.7356   -3.1529 H   0  0  0  0  0  0  0  0  0  0  0  0
    3.2844    4.7150   -0.8591 H   0  0  0  0  0  0  0  0  0  0  0  0
    4.8461    3.0139   -5.0903 H   0  0  0  0  0  0  0  0  0  0  0  0
    5.1233    1.7170   -6.1693 H   0  0  0  0  0  0  0  0  0  0  0  0
    4.7501   -2.0692   -4.1595 H   0  0  0  0  0  0  0  0  0  0  0  0
  1  2  1  0  0  0  0
  1 23  1  0  0  0  0
  1 24  1  0  0  0  0
  1 25  1  0  0  0  0
  2  3  1  0  0  0  0
  2  4  1  0  0  0  0
  2 26  1  0  0  0  0
  3 27  1  0  0  0  0
  3 28  1  0  0  0  0
  3 29  1  0  0  0  0
  4  5  1  0  0  0  0
  4 22  1  0  0  0  0
  5  6  2  0  0  0  0
  6  7  1  0  0  0  0
  6 16  1  0  0  0  0
  7  8  1  0  0  0  0
  7 15  2  0  0  0  0
  8  9  2  0  0  0  0
  8 30  1  0  0  0  0
  9 10  1  0  0  0  0
  9 31  1  0  0  0  0
 10 11  1  0  0  0  0
 10 13  2  0  0  0  0
 11 12  2  0  0  0  0
 11 32  1  0  0  0  0
 13 14  1  0  0  0  0
 13 15  1  0  0  0  0
 15 33  1  0  0  0  0
 16 17  1  0  0  0  0
 16 22  2  0  0  0  0
 17 18  1  0  0  0  0
 17 19  2  0  0  0  0
 18 34  1  0  0  0  0
 18 35  1  0  0  0  0
 19 20  1  0  0  0  0
 20 21  2  0  0  0  0
 20 36  1  0  0  0  0
 21 22  1  0  0  0  0
M  END
$$$$
