CHEMBL382517
 OpenBabel04072215373D

 44 47  0  0  0  0  0  0  0  0999 V2000
    5.2854    1.6224   -1.6103 C   0  0  0  0  0  0  0  0  0  0  0  0
    4.2967    0.8077   -0.8303 C   0  0  0  0  0  0  0  0  0  0  0  0
    4.6138   -0.8714   -0.7230 S   0  0  0  0  0  0  0  0  0  0  0  0
    3.2710   -1.1401    0.2666 C   0  0  0  0  0  0  0  0  0  0  0  0
    3.0480   -2.3855    0.7241 N   0  0  0  0  0  0  0  0  0  0  0  0
    1.9588   -2.4586    1.4913 C   0  0  0  0  0  0  0  0  0  0  0  0
    1.1178   -1.4628    1.7887 N   0  0  0  0  0  0  0  0  0  0  0  0
    1.3665   -0.2328    1.3027 C   0  0  0  0  0  0  0  0  0  0  0  0
    0.4044    0.7080    1.6495 N   0  0  0  0  0  0  0  0  0  0  0  0
    2.5143   -0.0017    0.5062 C   0  0  0  0  0  0  0  0  0  0  0  0
    3.1386    1.1718   -0.1438 C   0  0  0  0  0  0  0  0  0  0  0  0
    2.6899    2.5785   -0.0603 C   0  0  0  0  0  0  0  0  0  0  0  0
    2.1611    3.0708    1.1317 C   0  0  0  0  0  0  0  0  0  0  0  0
    1.6147    4.3553    1.2152 C   0  0  0  0  0  0  0  0  0  0  0  0
    1.6920    5.2421    0.1439 C   0  0  0  0  0  0  0  0  0  0  0  0
    1.1644    6.5531    0.1788 N   0  0  0  0  0  0  0  0  0  0  0  0
    0.5268    7.1386    1.2560 C   0  0  0  0  0  0  0  0  0  0  0  0
    0.4114    6.6375    2.3712 O   0  0  0  0  0  0  0  0  0  0  0  0
   -0.0364    8.3628    0.9239 N   0  0  0  0  0  0  0  0  0  0  0  0
   -0.7271    9.1204    1.8991 C   0  0  0  0  0  0  0  0  0  0  0  0
   -1.9602    9.6829    1.5679 C   0  0  0  0  0  0  0  0  0  0  0  0
   -2.6996   10.3655    2.5354 C   0  0  0  0  0  0  0  0  0  0  0  0
   -2.1842   10.5287    3.8228 C   0  0  0  0  0  0  0  0  0  0  0  0
   -0.9370   10.0005    4.1411 C   0  0  0  0  0  0  0  0  0  0  0  0
   -0.2924   10.2236    5.7226 Cl  0  0  0  0  0  0  0  0  0  0  0  0
   -0.2087    9.2916    3.1899 C   0  0  0  0  0  0  0  0  0  0  0  0
    2.3027    4.7995   -1.0294 C   0  0  0  0  0  0  0  0  0  0  0  0
    2.7584    3.4730   -1.1417 C   0  0  0  0  0  0  0  0  0  0  0  0
    6.2006    1.0623   -1.8326 H   0  0  0  0  0  0  0  0  0  0  0  0
    5.5816    2.5165   -1.0544 H   0  0  0  0  0  0  0  0  0  0  0  0
    4.8592    1.9171   -2.5735 H   0  0  0  0  0  0  0  0  0  0  0  0
    1.7329   -3.4305    1.9142 H   0  0  0  0  0  0  0  0  0  0  0  0
   -0.4040    0.2539    2.0630 H   0  0  0  0  0  0  0  0  0  0  0  0
    0.2056    1.4034    0.9426 H   0  0  0  0  0  0  0  0  0  0  0  0
    2.1266    2.4571    2.0300 H   0  0  0  0  0  0  0  0  0  0  0  0
    1.1364    4.6145    2.1530 H   0  0  0  0  0  0  0  0  0  0  0  0
    1.3437    7.1459   -0.6181 H   0  0  0  0  0  0  0  0  0  0  0  0
   -0.3946    8.4139   -0.0191 H   0  0  0  0  0  0  0  0  0  0  0  0
   -2.3903    9.5415    0.5786 H   0  0  0  0  0  0  0  0  0  0  0  0
   -3.6846   10.7566    2.2936 H   0  0  0  0  0  0  0  0  0  0  0  0
   -2.7622   11.0630    4.5731 H   0  0  0  0  0  0  0  0  0  0  0  0
    0.7575    8.8713    3.4583 H   0  0  0  0  0  0  0  0  0  0  0  0
    2.4120    5.4607   -1.8860 H   0  0  0  0  0  0  0  0  0  0  0  0
    3.1572    3.1628   -2.1013 H   0  0  0  0  0  0  0  0  0  0  0  0
  1  2  1  0  0  0  0
  1 29  1  0  0  0  0
  1 30  1  0  0  0  0
  1 31  1  0  0  0  0
  2  3  1  0  0  0  0
  2 11  2  0  0  0  0
  3  4  1  0  0  0  0
  4  5  1  0  0  0  0
  4 10  2  0  0  0  0
  5  6  2  0  0  0  0
  6  7  1  0  0  0  0
  6 32  1  0  0  0  0
  7  8  2  0  0  0  0
  8  9  1  0  0  0  0
  8 10  1  0  0  0  0
  9 33  1  0  0  0  0
  9 34  1  0  0  0  0
 10 11  1  0  0  0  0
 11 12  1  0  0  0  0
 12 13  1  0  0  0  0
 12 28  2  0  0  0  0
 13 14  2  0  0  0  0
 13 35  1  0  0  0  0
 14 15  1  0  0  0  0
 14 36  1  0  0  0  0
 15 16  1  0  0  0  0
 15 27  2  0  0  0  0
 16 17  1  0  0  0  0
 16 37  1  0  0  0  0
 17 18  2  0  0  0  0
 17 19  1  0  0  0  0
 19 20  1  0  0  0  0
 19 38  1  0  0  0  0
 20 21  1  0  0  0  0
 20 26  2  0  0  0  0
 21 22  2  0  0  0  0
 21 39  1  0  0  0  0
 22 23  1  0  0  0  0
 22 40  1  0  0  0  0
 23 24  2  0  0  0  0
 23 41  1  0  0  0  0
 24 25  1  0  0  0  0
 24 26  1  0  0  0  0
 26 42  1  0  0  0  0
 27 28  1  0  0  0  0
 27 43  1  0  0  0  0
 28 44  1  0  0  0  0
M  END
$$$$
