CHEMBL230222
 OpenBabel04072215363D

 59 64  0  0  1  0  0  0  0  0999 V2000
   -4.2500    0.6820   -1.3863 C   0  0  0  0  0  0  0  0  0  0  0  0
   -2.8361    0.3401   -1.3501 N   0  0  0  0  0  0  0  0  0  0  0  0
   -2.6058   -1.0678   -1.0328 C   0  0  0  0  0  0  0  0  0  0  0  0
   -1.1070   -1.1163   -0.7874 C   0  0  0  0  0  0  0  0  0  0  0  0
   -0.7128    0.3016   -0.3763 C   0  0  0  0  0  0  0  0  0  0  0  0
   -2.0102    1.1177   -0.4020 C   0  0  2  0  0  0  0  0  0  0  0  0
   -2.6119    1.2830    1.0091 C   0  0  0  0  0  0  0  0  0  0  0  0
   -1.7463    2.0187    1.8806 O   0  0  0  0  0  0  0  0  0  0  0  0
   -2.2315    2.2238    3.1556 C   0  0  0  0  0  0  0  0  0  0  0  0
   -3.4564    1.7155    3.6124 C   0  0  0  0  0  0  0  0  0  0  0  0
   -3.9235    1.9385    4.9193 C   0  0  0  0  0  0  0  0  0  0  0  0
   -5.1780    1.4257    5.2832 N   0  0  0  0  0  0  0  0  0  0  0  0
   -5.8582    1.7027    6.4053 C   0  0  0  0  0  0  0  0  0  0  0  0
   -5.7368    2.7059    7.2500 N   0  0  0  0  0  0  0  0  0  0  0  0
   -6.6694    2.4476    8.2106 C   0  0  0  0  0  0  0  0  0  0  0  0
   -7.0034    3.1516    9.3703 C   0  0  0  0  0  0  0  0  0  0  0  0
   -8.0238    2.6364   10.1843 C   0  0  0  0  0  0  0  0  0  0  0  0
   -8.3357    3.4128   11.2800 O   0  0  0  0  0  0  0  0  0  0  0  0
   -8.7654    2.8393   12.4550 C   0  0  0  0  0  0  0  0  0  0  0  0
   -8.3987    1.5614   12.8921 C   0  0  0  0  0  0  0  0  0  0  0  0
   -8.9000    1.0863   14.0961 C   0  0  0  0  0  0  0  0  0  0  0  0
   -9.6968    1.7700   14.9445 N   0  0  0  0  0  0  0  0  0  0  0  0
   -9.9581    3.0186   14.5209 C   0  0  0  0  0  0  0  0  0  0  0  0
  -10.6905    3.9321   15.2282 N   0  0  0  0  0  0  0  0  0  0  0  0
  -10.7472    5.1163   14.5389 C   0  0  0  0  0  0  0  0  0  0  0  0
  -10.0575    4.9467   13.3557 C   0  0  0  0  0  0  0  0  0  0  0  0
   -9.5456    3.6160   13.3349 C   0  0  0  0  0  0  0  0  0  0  0  0
   -8.7083    1.4647    9.8191 C   0  0  0  0  0  0  0  0  0  0  0  0
   -8.3557    0.7300    8.6767 C   0  0  0  0  0  0  0  0  0  0  0  0
   -7.3400    1.2770    7.9061 C   0  0  0  0  0  0  0  0  0  0  0  0
   -6.8331    0.7981    6.7339 O   0  0  0  0  0  0  0  0  0  0  0  0
   -3.1349    2.7315    5.7591 C   0  0  0  0  0  0  0  0  0  0  0  0
   -1.9074    3.2443    5.3317 C   0  0  0  0  0  0  0  0  0  0  0  0
   -1.4563    2.9894    4.0336 C   0  0  0  0  0  0  0  0  0  0  0  0
    0.0676    3.6519    3.5663 Cl  0  0  0  0  0  0  0  0  0  0  0  0
   -4.7477    0.1370   -2.1958 H   0  0  0  0  0  0  0  0  0  0  0  0
   -4.3824    1.7493   -1.5934 H   0  0  0  0  0  0  0  0  0  0  0  0
   -4.7732    0.4406   -0.4553 H   0  0  0  0  0  0  0  0  0  0  0  0
   -2.9017   -1.7315   -1.8516 H   0  0  0  0  0  0  0  0  0  0  0  0
   -3.1447   -1.3791   -0.1298 H   0  0  0  0  0  0  0  0  0  0  0  0
   -0.5754   -1.3970   -1.7041 H   0  0  0  0  0  0  0  0  0  0  0  0
   -0.8513   -1.8473   -0.0137 H   0  0  0  0  0  0  0  0  0  0  0  0
    0.0005    0.7008   -1.1080 H   0  0  0  0  0  0  0  0  0  0  0  0
   -0.2177    0.3074    0.6000 H   0  0  0  0  0  0  0  0  0  0  0  0
   -1.7979    2.1135   -0.8097 H   0  0  0  0  0  0  0  0  0  0  0  0
   -2.7907    0.2908    1.4385 H   0  0  0  0  0  0  0  0  0  0  0  0
   -3.5550    1.8328    0.9180 H   0  0  0  0  0  0  0  0  0  0  0  0
   -4.0998    1.1300    2.9607 H   0  0  0  0  0  0  0  0  0  0  0  0
   -5.4886    0.6244    4.7510 H   0  0  0  0  0  0  0  0  0  0  0  0
   -6.4898    4.0732    9.6201 H   0  0  0  0  0  0  0  0  0  0  0  0
   -7.7346    0.9299   12.3130 H   0  0  0  0  0  0  0  0  0  0  0  0
   -8.6514    0.0802   14.4258 H   0  0  0  0  0  0  0  0  0  0  0  0
  -11.0976    3.7410   16.1317 H   0  0  0  0  0  0  0  0  0  0  0  0
  -11.2673    5.9720   14.9502 H   0  0  0  0  0  0  0  0  0  0  0  0
   -9.9171    5.7033   12.5942 H   0  0  0  0  0  0  0  0  0  0  0  0
   -9.5367    1.1020   10.4235 H   0  0  0  0  0  0  0  0  0  0  0  0
   -8.8508   -0.1918    8.4003 H   0  0  0  0  0  0  0  0  0  0  0  0
   -3.4486    2.9597    6.7755 H   0  0  0  0  0  0  0  0  0  0  0  0
   -1.3189    3.8415    6.0173 H   0  0  0  0  0  0  0  0  0  0  0  0
  1  2  1  0  0  0  0
  1 36  1  0  0  0  0
  1 37  1  0  0  0  0
  1 38  1  0  0  0  0
  2  3  1  0  0  0  0
  2  6  1  0  0  0  0
  3  4  1  0  0  0  0
  3 39  1  0  0  0  0
  3 40  1  0  0  0  0
  4  5  1  0  0  0  0
  4 41  1  0  0  0  0
  4 42  1  0  0  0  0
  5  6  1  0  0  0  0
  5 43  1  0  0  0  0
  5 44  1  0  0  0  0
  6  7  1  0  0  0  0
  6 45  1  6  0  0  0
  7  8  1  0  0  0  0
  7 46  1  0  0  0  0
  7 47  1  0  0  0  0
  8  9  1  0  0  0  0
  9 10  1  0  0  0  0
  9 34  2  0  0  0  0
 10 11  2  0  0  0  0
 10 48  1  0  0  0  0
 11 12  1  0  0  0  0
 11 32  1  0  0  0  0
 12 13  1  0  0  0  0
 12 49  1  0  0  0  0
 13 14  2  0  0  0  0
 13 31  1  0  0  0  0
 14 15  1  0  0  0  0
 15 16  1  0  0  0  0
 15 30  2  0  0  0  0
 16 17  2  0  0  0  0
 16 50  1  0  0  0  0
 17 18  1  0  0  0  0
 17 28  1  0  0  0  0
 18 19  1  0  0  0  0
 19 20  1  0  0  0  0
 19 27  2  0  0  0  0
 20 21  2  0  0  0  0
 20 51  1  0  0  0  0
 21 22  1  0  0  0  0
 21 52  1  0  0  0  0
 22 23  2  0  0  0  0
 23 24  1  0  0  0  0
 23 27  1  0  0  0  0
 24 25  1  0  0  0  0
 24 53  1  0  0  0  0
 25 26  2  0  0  0  0
 25 54  1  0  0  0  0
 26 27  1  0  0  0  0
 26 55  1  0  0  0  0
 28 29  2  0  0  0  0
 28 56  1  0  0  0  0
 29 30  1  0  0  0  0
 29 57  1  0  0  0  0
 30 31  1  0  0  0  0
 32 33  2  0  0  0  0
 32 58  1  0  0  0  0
 33 34  1  0  0  0  0
 33 59  1  0  0  0  0
 34 35  1  0  0  0  0
M  END
$$$$
