CHEMBL4780189
 OpenBabel04072215383D

144150  0  0  1  0  0  0  0  0999 V2000
   -5.2889   -9.5574  -16.4864 C   0  0  0  0  0  0  0  0  0  0  0  0
   -4.1432   -8.6146  -16.6262 C   0  0  0  0  0  0  0  0  0  0  0  0
   -4.2035   -7.7174  -17.6860 N   0  0  0  0  0  0  0  0  0  0  0  0
   -3.1412   -6.9497  -17.6806 C   0  0  0  0  0  0  0  0  0  0  0  0
   -2.0100   -7.2410  -16.4388 S   0  0  0  0  0  0  0  0  0  0  0  0
   -3.0129   -8.5041  -15.8137 C   0  0  0  0  0  0  0  0  0  0  0  0
   -2.5838   -9.2756  -14.6306 C   0  0  0  0  0  0  0  0  0  0  0  0
   -1.8289   -8.7038  -13.5900 C   0  0  0  0  0  0  0  0  0  0  0  0
   -1.3977   -9.4643  -12.4903 C   0  0  0  0  0  0  0  0  0  0  0  0
   -1.7456  -10.8113  -12.3870 C   0  0  0  0  0  0  0  0  0  0  0  0
   -1.2378  -11.7343  -11.3179 C   0  0  0  0  0  0  0  0  0  0  0  0
   -0.9980  -11.1864  -10.0070 N   0  0  0  0  0  0  0  0  0  0  0  0
   -0.5347  -12.0544   -9.0458 C   0  0  0  0  0  0  0  0  0  0  0  0
   -0.3113  -13.2345   -9.3330 O   0  0  0  0  0  0  0  0  0  0  0  0
   -0.1396  -11.4677   -7.6710 C   0  0  2  0  0  0  0  0  0  0  0  0
    0.3109  -12.6549   -6.7953 C   0  0  0  0  0  0  0  0  0  0  0  0
    0.1072  -12.1797   -5.3779 C   0  0  1  0  0  0  0  0  0  0  0  0
    1.2618  -11.4683   -4.9417 O   0  0  0  0  0  0  0  0  0  0  0  0
   -1.1222  -11.2773   -5.4711 C   0  0  0  0  0  0  0  0  0  0  0  0
   -1.1349  -10.7543   -6.8402 N   0  0  0  0  0  0  0  0  0  0  0  0
   -1.6209   -9.5079   -7.2077 C   0  0  0  0  0  0  0  0  0  0  0  0
   -1.4047   -9.0715   -8.3450 O   0  0  0  0  0  0  0  0  0  0  0  0
   -2.4230   -8.6543   -6.1554 C   0  0  1  0  0  0  0  0  0  0  0  0
   -1.7552   -7.3559   -6.0515 N   0  0  0  0  0  0  0  0  0  0  0  0
   -0.5138   -7.1523   -5.5058 C   0  0  0  0  0  0  0  0  0  0  0  0
    0.2053   -8.0777   -5.1389 O   0  0  0  0  0  0  0  0  0  0  0  0
   -0.0525   -5.6955   -5.5060 C   0  0  0  0  0  0  0  0  0  0  0  0
   -1.1658   -4.6688   -5.2619 C   0  0  0  0  0  0  0  0  0  0  0  0
   -0.6610   -3.2306   -5.2839 C   0  0  0  0  0  0  0  0  0  0  0  0
   -1.8204   -2.2500   -5.0750 C   0  0  0  0  0  0  0  0  0  0  0  0
   -1.3130   -0.8146   -5.1334 C   0  0  0  0  0  0  0  0  0  0  0  0
   -2.4360    0.2043   -4.9456 C   0  0  0  0  0  0  0  0  0  0  0  0
   -1.9200    1.6427   -4.9819 C   0  0  0  0  0  0  0  0  0  0  0  0
   -1.2813    2.0159   -6.3196 C   0  0  0  0  0  0  0  0  0  0  0  0
   -0.8116    3.4625   -6.2972 C   0  0  0  0  0  0  0  0  0  0  0  0
   -0.1853    3.8613   -7.6256 C   0  0  0  0  0  0  0  0  0  0  0  0
    0.2175    5.3190   -7.5854 C   0  0  0  0  0  0  0  0  0  0  0  0
   -0.1473    6.1410   -6.7538 O   0  0  0  0  0  0  0  0  0  0  0  0
    1.1566    5.6801   -8.5596 N   0  0  0  0  0  0  0  0  0  0  0  0
    1.7936    4.7233   -9.2734 N   0  0  0  0  0  0  0  0  0  0  0  0
    3.0503    5.1435   -9.2153 C   0  0  0  0  0  0  0  0  0  0  0  0
    4.0508    4.2719   -9.4076 N   0  0  0  0  0  0  0  0  0  0  0  0
    3.1382    6.5429   -8.9063 C   0  0  0  0  0  0  0  0  0  0  0  0
    4.1345    7.5467   -8.7472 C   0  0  0  0  0  0  0  0  0  0  0  0
    5.5801    7.2571   -8.8054 C   0  0  0  0  0  0  0  0  0  0  0  0
    6.4655    7.9030   -7.9201 C   0  0  0  0  0  0  0  0  0  0  0  0
    7.8393    7.7120   -8.0110 C   0  0  0  0  0  0  0  0  0  0  0  0
    8.3476    6.7809   -8.9086 C   0  0  0  0  0  0  0  0  0  0  0  0
    7.4924    6.0253   -9.7083 C   0  0  0  0  0  0  0  0  0  0  0  0
    7.9393    4.9107  -10.4635 N   0  0  0  0  0  0  0  0  0  0  0  0
    9.0776    4.1902  -10.1431 C   0  0  0  0  0  0  0  0  0  0  0  0
    9.7863    4.4110   -9.1589 O   0  0  0  0  0  0  0  0  0  0  0  0
    9.3690    3.2078  -11.0721 N   0  0  0  0  0  0  0  0  0  0  0  0
   10.5381    2.4228  -10.9327 C   0  0  0  0  0  0  0  0  0  0  0  0
   11.3815    2.2712  -12.0296 C   0  0  0  0  0  0  0  0  0  0  0  0
   12.5697    1.5517  -11.9014 C   0  0  0  0  0  0  0  0  0  0  0  0
   12.9039    0.9543  -10.6878 C   0  0  0  0  0  0  0  0  0  0  0  0
   12.0664    1.0763   -9.5715 C   0  0  0  0  0  0  0  0  0  0  0  0
   12.4653    0.4353   -8.2597 C   0  0  0  0  0  0  0  0  0  0  0  0
   12.6171    1.4621   -7.1330 C   0  0  0  0  0  0  0  0  0  0  0  0
   11.4992   -0.6746   -7.8317 C   0  0  0  0  0  0  0  0  0  0  0  0
   10.8768    1.8161   -9.7073 C   0  0  0  0  0  0  0  0  0  0  0  0
    6.1369    6.3563   -9.7329 C   0  0  0  0  0  0  0  0  0  0  0  0
    3.6801    8.8658   -8.4798 C   0  0  0  0  0  0  0  0  0  0  0  0
    2.3316    9.1955   -8.3738 C   0  0  0  0  0  0  0  0  0  0  0  0
    1.3580    8.2112   -8.4628 C   0  0  0  0  0  0  0  0  0  0  0  0
    1.7955    6.8947   -8.6900 C   0  0  0  0  0  0  0  0  0  0  0  0
   -3.9377   -8.4429   -6.5182 C   0  0  0  0  0  0  0  0  0  0  0  0
   -4.6708   -9.7940   -6.5531 C   0  0  0  0  0  0  0  0  0  0  0  0
   -4.6352   -7.5691   -5.4400 C   0  0  0  0  0  0  0  0  0  0  0  0
   -4.1302   -7.7376   -7.8770 C   0  0  0  0  0  0  0  0  0  0  0  0
   -2.4974  -11.3849  -13.4216 C   0  0  0  0  0  0  0  0  0  0  0  0
   -2.8999  -10.6335  -14.5251 C   0  0  0  0  0  0  0  0  0  0  0  0
   -6.0739   -9.3296  -17.2146 H   0  0  0  0  0  0  0  0  0  0  0  0
   -5.7263   -9.4915  -15.4859 H   0  0  0  0  0  0  0  0  0  0  0  0
   -4.9740  -10.5876  -16.6744 H   0  0  0  0  0  0  0  0  0  0  0  0
   -2.9865   -6.1757  -18.4203 H   0  0  0  0  0  0  0  0  0  0  0  0
   -1.5454   -7.6538  -13.6227 H   0  0  0  0  0  0  0  0  0  0  0  0
   -0.7715   -8.9933  -11.7355 H   0  0  0  0  0  0  0  0  0  0  0  0
   -0.3002  -12.1812  -11.6746 H   0  0  0  0  0  0  0  0  0  0  0  0
   -1.9563  -12.5534  -11.1826 H   0  0  0  0  0  0  0  0  0  0  0  0
   -1.2721  -10.2398   -9.7403 H   0  0  0  0  0  0  0  0  0  0  0  0
    0.7015  -10.7809   -7.8336 H   0  0  0  0  0  0  0  0  0  0  0  0
    1.3445  -12.9393   -7.0183 H   0  0  0  0  0  0  0  0  0  0  0  0
   -0.3299  -13.5311   -6.9612 H   0  0  0  0  0  0  0  0  0  0  0  0
   -0.0486  -13.0124   -4.6852 H   0  0  0  0  0  0  0  0  0  0  0  0
    1.2250  -10.5583   -5.2928 H   0  0  0  0  0  0  0  0  0  0  0  0
   -1.0576  -10.4830   -4.7276 H   0  0  0  0  0  0  0  0  0  0  0  0
   -2.0490  -11.8447   -5.3413 H   0  0  0  0  0  0  0  0  0  0  0  0
   -2.3755   -9.1001   -5.1632 H   0  0  0  0  0  0  0  0  0  0  0  0
   -2.3149   -6.5511   -6.2735 H   0  0  0  0  0  0  0  0  0  0  0  0
    0.4351   -5.5024   -6.4686 H   0  0  0  0  0  0  0  0  0  0  0  0
    0.7051   -5.5906   -4.7201 H   0  0  0  0  0  0  0  0  0  0  0  0
   -1.6586   -4.8817   -4.3058 H   0  0  0  0  0  0  0  0  0  0  0  0
   -1.9325   -4.7394   -6.0403 H   0  0  0  0  0  0  0  0  0  0  0  0
   -0.1844   -3.0275   -6.2514 H   0  0  0  0  0  0  0  0  0  0  0  0
    0.0984   -3.0839   -4.5079 H   0  0  0  0  0  0  0  0  0  0  0  0
   -2.3046   -2.4391   -4.1099 H   0  0  0  0  0  0  0  0  0  0  0  0
   -2.5797   -2.3998   -5.8536 H   0  0  0  0  0  0  0  0  0  0  0  0
   -0.8302   -0.6672   -6.1049 H   0  0  0  0  0  0  0  0  0  0  0  0
   -0.5485   -0.6615   -4.3626 H   0  0  0  0  0  0  0  0  0  0  0  0
   -2.9258    0.0351   -3.9787 H   0  0  0  0  0  0  0  0  0  0  0  0
   -3.2022    0.0697   -5.7186 H   0  0  0  0  0  0  0  0  0  0  0  0
   -1.1944    1.7907   -4.1724 H   0  0  0  0  0  0  0  0  0  0  0  0
   -2.7585    2.3213   -4.7821 H   0  0  0  0  0  0  0  0  0  0  0  0
   -2.0021    1.8662   -7.1320 H   0  0  0  0  0  0  0  0  0  0  0  0
   -0.4176    1.3743   -6.5290 H   0  0  0  0  0  0  0  0  0  0  0  0
   -0.0719    3.5935   -5.4962 H   0  0  0  0  0  0  0  0  0  0  0  0
   -1.6543    4.1248   -6.0657 H   0  0  0  0  0  0  0  0  0  0  0  0
   -0.8899    3.7248   -8.4528 H   0  0  0  0  0  0  0  0  0  0  0  0
    0.6848    3.2152   -7.7907 H   0  0  0  0  0  0  0  0  0  0  0  0
    3.7544    3.3050   -9.4964 H   0  0  0  0  0  0  0  0  0  0  0  0
    4.8544    4.3547   -8.7904 H   0  0  0  0  0  0  0  0  0  0  0  0
    6.0957    8.5813   -7.1528 H   0  0  0  0  0  0  0  0  0  0  0  0
    8.5170    8.2680   -7.3691 H   0  0  0  0  0  0  0  0  0  0  0  0
    9.4247    6.6497   -8.9534 H   0  0  0  0  0  0  0  0  0  0  0  0
    7.2411    4.4063  -10.9915 H   0  0  0  0  0  0  0  0  0  0  0  0
    9.0985    3.4415  -12.0151 H   0  0  0  0  0  0  0  0  0  0  0  0
   11.1625    2.7711  -12.9700 H   0  0  0  0  0  0  0  0  0  0  0  0
   13.2521    1.4811  -12.7449 H   0  0  0  0  0  0  0  0  0  0  0  0
   13.8367    0.3894  -10.6149 H   0  0  0  0  0  0  0  0  0  0  0  0
   13.4555   -0.0442   -8.3822 H   0  0  0  0  0  0  0  0  0  0  0  0
   11.6706    1.9726   -6.9104 H   0  0  0  0  0  0  0  0  0  0  0  0
   13.3539    2.2289   -7.3961 H   0  0  0  0  0  0  0  0  0  0  0  0
   12.9537    0.9824   -6.2051 H   0  0  0  0  0  0  0  0  0  0  0  0
   10.5026   -0.2826   -7.5986 H   0  0  0  0  0  0  0  0  0  0  0  0
   11.8694   -1.1848   -6.9306 H   0  0  0  0  0  0  0  0  0  0  0  0
   11.3908   -1.4292   -8.6164 H   0  0  0  0  0  0  0  0  0  0  0  0
   10.2151    1.9269   -8.8577 H   0  0  0  0  0  0  0  0  0  0  0  0
    5.4876    5.8729  -10.4567 H   0  0  0  0  0  0  0  0  0  0  0  0
    4.4031    9.6705   -8.3358 H   0  0  0  0  0  0  0  0  0  0  0  0
    2.0388   10.2252   -8.1768 H   0  0  0  0  0  0  0  0  0  0  0  0
    0.3070    8.4438   -8.3254 H   0  0  0  0  0  0  0  0  0  0  0  0
   -4.6039  -10.3048   -5.5862 H   0  0  0  0  0  0  0  0  0  0  0  0
   -4.2595  -10.4569   -7.3198 H   0  0  0  0  0  0  0  0  0  0  0  0
   -5.7355   -9.6534   -6.7771 H   0  0  0  0  0  0  0  0  0  0  0  0
   -4.5514   -8.0175   -4.4441 H   0  0  0  0  0  0  0  0  0  0  0  0
   -5.7031   -7.4509   -5.6614 H   0  0  0  0  0  0  0  0  0  0  0  0
   -4.2170   -6.5579   -5.3862 H   0  0  0  0  0  0  0  0  0  0  0  0
   -3.7399   -8.3345   -8.7055 H   0  0  0  0  0  0  0  0  0  0  0  0
   -3.6393   -6.7589   -7.9039 H   0  0  0  0  0  0  0  0  0  0  0  0
   -5.1932   -7.5655   -8.0809 H   0  0  0  0  0  0  0  0  0  0  0  0
   -2.7496  -12.4442  -13.3931 H   0  0  0  0  0  0  0  0  0  0  0  0
   -3.4339  -11.1539  -15.3122 H   0  0  0  0  0  0  0  0  0  0  0  0
  1  2  1  0  0  0  0
  1 74  1  0  0  0  0
  1 75  1  0  0  0  0
  1 76  1  0  0  0  0
  2  3  1  0  0  0  0
  2  6  2  0  0  0  0
  3  4  2  0  0  0  0
  4  5  1  0  0  0  0
  4 77  1  0  0  0  0
  5  6  1  0  0  0  0
  6  7  1  0  0  0  0
  7  8  1  0  0  0  0
  7 73  2  0  0  0  0
  8  9  2  0  0  0  0
  8 78  1  0  0  0  0
  9 10  1  0  0  0  0
  9 79  1  0  0  0  0
 10 11  1  0  0  0  0
 10 72  2  0  0  0  0
 11 12  1  0  0  0  0
 11 80  1  0  0  0  0
 11 81  1  0  0  0  0
 12 13  1  0  0  0  0
 12 82  1  0  0  0  0
 13 14  2  0  0  0  0
 15 16  1  0  0  0  0
 15 20  1  0  0  0  0
 15 13  1  0  0  0  0
 15 83  1  6  0  0  0
 16 17  1  0  0  0  0
 16 84  1  0  0  0  0
 16 85  1  0  0  0  0
 17 18  1  0  0  0  0
 17 19  1  0  0  0  0
 17 86  1  1  0  0  0
 18 87  1  0  0  0  0
 19 20  1  0  0  0  0
 19 88  1  0  0  0  0
 19 89  1  0  0  0  0
 20 21  1  0  0  0  0
 21 22  2  0  0  0  0
 21 23  1  0  0  0  0
 23 24  1  0  0  0  0
 23 68  1  0  0  0  0
 23 90  1  1  0  0  0
 24 25  1  0  0  0  0
 24 91  1  0  0  0  0
 25 26  2  0  0  0  0
 25 27  1  0  0  0  0
 27 28  1  0  0  0  0
 27 92  1  0  0  0  0
 27 93  1  0  0  0  0
 28 29  1  0  0  0  0
 28 94  1  0  0  0  0
 28 95  1  0  0  0  0
 29 30  1  0  0  0  0
 29 96  1  0  0  0  0
 29 97  1  0  0  0  0
 30 31  1  0  0  0  0
 30 98  1  0  0  0  0
 30 99  1  0  0  0  0
 31 32  1  0  0  0  0
 31100  1  0  0  0  0
 31101  1  0  0  0  0
 32 33  1  0  0  0  0
 32102  1  0  0  0  0
 32103  1  0  0  0  0
 33 34  1  0  0  0  0
 33104  1  0  0  0  0
 33105  1  0  0  0  0
 34 35  1  0  0  0  0
 34106  1  0  0  0  0
 34107  1  0  0  0  0
 35 36  1  0  0  0  0
 35108  1  0  0  0  0
 35109  1  0  0  0  0
 36 37  1  0  0  0  0
 36110  1  0  0  0  0
 36111  1  0  0  0  0
 37 38  2  0  0  0  0
 37 39  1  0  0  0  0
 39 40  1  0  0  0  0
 39 67  1  0  0  0  0
 40 41  2  0  0  0  0
 41 42  1  0  0  0  0
 41 43  1  0  0  0  0
 42112  1  0  0  0  0
 42113  1  0  0  0  0
 43 44  1  0  0  0  0
 43 67  2  0  0  0  0
 44 45  1  0  0  0  0
 44 64  2  0  0  0  0
 45 46  1  0  0  0  0
 45 63  2  0  0  0  0
 46 47  2  0  0  0  0
 46114  1  0  0  0  0
 47 48  1  0  0  0  0
 47115  1  0  0  0  0
 48 49  2  0  0  0  0
 48116  1  0  0  0  0
 49 50  1  0  0  0  0
 49 63  1  0  0  0  0
 50 51  1  0  0  0  0
 50117  1  0  0  0  0
 51 52  2  0  0  0  0
 51 53  1  0  0  0  0
 53 54  1  0  0  0  0
 53118  1  0  0  0  0
 54 55  1  0  0  0  0
 54 62  2  0  0  0  0
 55 56  2  0  0  0  0
 55119  1  0  0  0  0
 56 57  1  0  0  0  0
 56120  1  0  0  0  0
 57 58  2  0  0  0  0
 57121  1  0  0  0  0
 58 59  1  0  0  0  0
 58 62  1  0  0  0  0
 59 60  1  0  0  0  0
 59 61  1  0  0  0  0
 59122  1  0  0  0  0
 60123  1  0  0  0  0
 60124  1  0  0  0  0
 60125  1  0  0  0  0
 61126  1  0  0  0  0
 61127  1  0  0  0  0
 61128  1  0  0  0  0
 62129  1  0  0  0  0
 63130  1  0  0  0  0
 64 65  1  0  0  0  0
 64131  1  0  0  0  0
 65 66  2  0  0  0  0
 65132  1  0  0  0  0
 66 67  1  0  0  0  0
 66133  1  0  0  0  0
 68 69  1  0  0  0  0
 68 70  1  0  0  0  0
 68 71  1  0  0  0  0
 69134  1  0  0  0  0
 69135  1  0  0  0  0
 69136  1  0  0  0  0
 70137  1  0  0  0  0
 70138  1  0  0  0  0
 70139  1  0  0  0  0
 71140  1  0  0  0  0
 71141  1  0  0  0  0
 71142  1  0  0  0  0
 72 73  1  0  0  0  0
 72143  1  0  0  0  0
 73144  1  0  0  0  0
M  END
$$$$
