CHEMBL1242285
 OpenBabel04072215363D

 35 37  0  0  0  0  0  0  0  0999 V2000
    1.0612   -0.0327   -0.0599 C   0  0  0  0  0  0  0  0  0  0  0  0
    2.5869    0.0473    0.0089 C   0  0  0  0  0  0  0  0  0  0  0  0
    3.1863    0.1989   -1.3925 C   0  0  0  0  0  0  0  0  0  0  0  0
    3.0063    1.1251    0.8949 N   0  0  0  0  0  0  0  0  0  0  0  0
    2.6445    2.3929    0.6131 N   0  0  0  0  0  0  0  0  0  0  0  0
    3.1465    3.1276    1.6258 C   0  0  0  0  0  0  0  0  0  0  0  0
    2.9809    4.5625    1.6459 C   0  0  0  0  0  0  0  0  0  0  0  0
    3.9597    5.3943    2.2134 C   0  0  0  0  0  0  0  0  0  0  0  0
    3.8218    6.7603    2.2101 C   0  0  0  0  0  0  0  0  0  0  0  0
    4.7577    7.5771    2.7772 O   0  0  0  0  0  0  0  0  0  0  0  0
    2.7323    7.3564    1.5961 C   0  0  0  0  0  0  0  0  0  0  0  0
    1.7554    6.5427    1.0073 C   0  0  0  0  0  0  0  0  0  0  0  0
    0.2905    7.3387    0.1244 Br  0  0  0  0  0  0  0  0  0  0  0  0
    1.8637    5.1625    1.0427 C   0  0  0  0  0  0  0  0  0  0  0  0
    3.8101    2.2916    2.5786 C   0  0  0  0  0  0  0  0  0  0  0  0
    4.4786    2.4472    3.8017 C   0  0  0  0  0  0  0  0  0  0  0  0
    4.6825    3.6449    4.4758 N   0  0  0  0  0  0  0  0  0  0  0  0
    4.9767    1.3464    4.4055 N   0  0  0  0  0  0  0  0  0  0  0  0
    4.8086    0.1544    3.8011 C   0  0  0  0  0  0  0  0  0  0  0  0
    4.1820   -0.1082    2.6402 N   0  0  0  0  0  0  0  0  0  0  0  0
    3.7051    1.0190    2.0746 C   0  0  0  0  0  0  0  0  0  0  0  0
    0.7412   -0.8669   -0.6932 H   0  0  0  0  0  0  0  0  0  0  0  0
    0.6280    0.8853   -0.4706 H   0  0  0  0  0  0  0  0  0  0  0  0
    0.6352   -0.1810    0.9389 H   0  0  0  0  0  0  0  0  0  0  0  0
    2.9626   -0.8885    0.4394 H   0  0  0  0  0  0  0  0  0  0  0  0
    2.8734    1.1356   -1.8672 H   0  0  0  0  0  0  0  0  0  0  0  0
    2.8691   -0.6251   -2.0395 H   0  0  0  0  0  0  0  0  0  0  0  0
    4.2797    0.1957   -1.3526 H   0  0  0  0  0  0  0  0  0  0  0  0
    4.8557    4.9739    2.6270 H   0  0  0  0  0  0  0  0  0  0  0  0
    5.4529    7.0259    3.1924 H   0  0  0  0  0  0  0  0  0  0  0  0
    2.6613    8.4318    1.5551 H   0  0  0  0  0  0  0  0  0  0  0  0
    1.1073    4.5349    0.5826 H   0  0  0  0  0  0  0  0  0  0  0  0
    3.9901    4.3694    4.3113 H   0  0  0  0  0  0  0  0  0  0  0  0
    4.9638    3.5412    5.4216 H   0  0  0  0  0  0  0  0  0  0  0  0
    5.2245   -0.6901    4.3242 H   0  0  0  0  0  0  0  0  0  0  0  0
  1  2  1  0  0  0  0
  1 22  1  0  0  0  0
  1 23  1  0  0  0  0
  1 24  1  0  0  0  0
  2  3  1  0  0  0  0
  2  4  1  0  0  0  0
  2 25  1  0  0  0  0
  3 26  1  0  0  0  0
  3 27  1  0  0  0  0
  3 28  1  0  0  0  0
  4  5  1  0  0  0  0
  4 21  1  0  0  0  0
  5  6  2  0  0  0  0
  6  7  1  0  0  0  0
  6 15  1  0  0  0  0
  7  8  1  0  0  0  0
  7 14  2  0  0  0  0
  8  9  2  0  0  0  0
  8 29  1  0  0  0  0
  9 10  1  0  0  0  0
  9 11  1  0  0  0  0
 10 30  1  0  0  0  0
 11 12  2  0  0  0  0
 11 31  1  0  0  0  0
 12 13  1  0  0  0  0
 12 14  1  0  0  0  0
 14 32  1  0  0  0  0
 15 16  1  0  0  0  0
 15 21  2  0  0  0  0
 16 17  1  0  0  0  0
 16 18  2  0  0  0  0
 17 33  1  0  0  0  0
 17 34  1  0  0  0  0
 18 19  1  0  0  0  0
 19 20  2  0  0  0  0
 19 35  1  0  0  0  0
 20 21  1  0  0  0  0
M  END
$$$$
