CHEMBL3932112
 OpenBabel04072215373D

 69 71  0  0  1  0  0  0  0  0999 V2000
    0.5523   -1.4552   -0.4553 C   0  0  0  0  0  0  0  0  0  0  0  0
    1.9169   -1.4412   -0.2277 O   0  0  0  0  0  0  0  0  0  0  0  0
    2.8911   -1.4955   -1.1826 C   0  0  0  0  0  0  0  0  0  0  0  0
    2.7212   -1.0055   -2.4866 C   0  0  0  0  0  0  0  0  0  0  0  0
    3.7574   -1.1395   -3.4345 C   0  0  0  0  0  0  0  0  0  0  0  0
    3.5785   -0.6514   -4.6876 O   0  0  0  0  0  0  0  0  0  0  0  0
    4.5351   -0.7502   -5.6798 C   0  0  0  0  0  0  0  0  0  0  0  0
    4.9719   -1.7658   -3.0721 C   0  0  0  0  0  0  0  0  0  0  0  0
    5.1931   -2.2077   -1.7911 C   0  0  0  0  0  0  0  0  0  0  0  0
    6.4700   -2.7693   -1.4095 N   0  0  0  0  0  0  0  0  0  0  0  0
    6.7879   -2.6157    0.0566 C   0  0  0  0  0  0  0  0  0  0  0  0
    8.2282   -2.1212    0.2413 C   0  0  3  0  0  0  0  0  0  0  0  0
    8.3458   -0.8713   -0.3860 O   0  0  0  0  0  0  0  0  0  0  0  0
    8.6716   -1.9939    1.7107 C   0  0  0  0  0  0  0  0  0  0  0  0
    8.7231   -3.2816    2.4325 N   0  0  0  0  0  0  0  0  0  0  0  0
    9.3382   -3.1173    3.7735 C   0  0  0  0  0  0  0  0  0  0  0  0
    8.4987   -2.1960    4.6757 C   0  0  0  0  0  0  0  0  0  0  0  0
    9.4922   -4.4791    4.4672 C   0  0  0  0  0  0  0  0  0  0  0  0
    7.3420   -3.7098   -2.1975 C   0  0  0  0  0  0  0  0  0  0  0  0
    7.5279   -4.8140   -1.4111 C   0  0  0  0  0  0  0  0  0  0  0  0
    8.3963   -5.7391   -1.6461 C   0  0  0  0  0  0  0  0  0  0  0  0
    9.1521   -5.7339   -2.7267 C   0  0  0  0  0  0  0  0  0  0  0  0
   10.0459   -6.6465   -2.5976 N   0  0  0  0  0  0  0  0  0  0  0  0
   10.9067   -6.9276   -3.4834 C   0  0  0  0  0  0  0  0  0  0  0  0
   10.9298   -6.3802   -4.7466 C   0  0  0  0  0  0  0  0  0  0  0  0
   12.0241   -7.2979   -5.5446 C   0  0  0  0  0  0  0  0  0  0  0  0
   12.2982   -8.6077   -5.0071 C   0  0  0  0  0  0  0  0  0  0  0  0
   13.2490   -9.2430   -5.6484 N   0  0  0  0  0  0  0  0  0  0  0  0
   13.6369   -8.5082   -6.6499 N   0  0  0  0  0  0  0  0  0  0  0  0
   14.6986   -9.0989   -7.4813 C   0  0  0  0  0  0  0  0  0  0  0  0
   12.9119   -7.3177   -6.6805 C   0  0  0  0  0  0  0  0  0  0  0  0
   10.0337   -5.2310   -4.8970 N   0  0  0  0  0  0  0  0  0  0  0  0
    9.1144   -4.8697   -3.8180 C   0  0  0  0  0  0  0  0  0  0  0  0
    8.1050   -3.7239   -3.5331 C   0  0  0  0  0  0  0  0  0  0  0  0
    4.1202   -2.0681   -0.8411 C   0  0  0  0  0  0  0  0  0  0  0  0
    0.6886    2.1215   -0.1845 Cl  0  0  0  0  0  0  0  0  0  0  0  0
    0.0100   -1.3718    0.5129 H   0  0  0  0  0  0  0  0  0  0  0  0
    0.2708   -2.4256   -0.9165 H   0  0  0  0  0  0  0  0  0  0  0  0
    0.2272   -0.6206   -1.1069 H   0  0  0  0  0  0  0  0  0  0  0  0
    1.7964   -0.5169   -2.7662 H   0  0  0  0  0  0  0  0  0  0  0  0
    4.1836   -0.2586   -6.6124 H   0  0  0  0  0  0  0  0  0  0  0  0
    4.7414   -1.8267   -5.8754 H   0  0  0  0  0  0  0  0  0  0  0  0
    5.4785   -0.2620   -5.3397 H   0  0  0  0  0  0  0  0  0  0  0  0
    5.7835   -1.8793   -3.7638 H   0  0  0  0  0  0  0  0  0  0  0  0
    6.5974   -3.5203    0.6689 H   0  0  0  0  0  0  0  0  0  0  0  0
    6.1509   -1.8792    0.5791 H   0  0  0  0  0  0  0  0  0  0  0  0
    8.9308   -2.8267   -0.2476 H   0  0  0  0  0  0  0  0  0  0  0  0
    7.6528   -0.2761    0.0117 H   0  0  0  0  0  0  0  0  0  0  0  0
    7.9588   -1.3067    2.2050 H   0  0  0  0  0  0  0  0  0  0  0  0
    9.6878   -1.5415    1.7038 H   0  0  0  0  0  0  0  0  0  0  0  0
    9.3324   -3.9365    1.8845 H   0  0  0  0  0  0  0  0  0  0  0  0
   10.3607   -2.6850    3.6718 H   0  0  0  0  0  0  0  0  0  0  0  0
    7.4656   -2.5926    4.7697 H   0  0  0  0  0  0  0  0  0  0  0  0
    8.4592   -1.1622    4.2807 H   0  0  0  0  0  0  0  0  0  0  0  0
    8.9570   -2.1194    5.6835 H   0  0  0  0  0  0  0  0  0  0  0  0
    8.5027   -4.9625    4.6096 H   0  0  0  0  0  0  0  0  0  0  0  0
    9.9673   -4.3436    5.4652 H   0  0  0  0  0  0  0  0  0  0  0  0
   10.1446   -5.1524    3.8728 H   0  0  0  0  0  0  0  0  0  0  0  0
    7.0368   -5.0080   -0.4972 H   0  0  0  0  0  0  0  0  0  0  0  0
    8.5267   -6.5071   -0.9016 H   0  0  0  0  0  0  0  0  0  0  0  0
   11.5437   -7.6382   -3.0670 H   0  0  0  0  0  0  0  0  0  0  0  0
   11.8790   -9.1589   -4.1811 H   0  0  0  0  0  0  0  0  0  0  0  0
   15.0199  -10.0857   -7.0347 H   0  0  0  0  0  0  0  0  0  0  0  0
   15.6164   -8.4813   -7.5043 H   0  0  0  0  0  0  0  0  0  0  0  0
   14.3215   -9.3500   -8.4877 H   0  0  0  0  0  0  0  0  0  0  0  0
   13.0742   -6.5649   -7.4365 H   0  0  0  0  0  0  0  0  0  0  0  0
    7.9882   -2.8985   -4.2294 H   0  0  0  0  0  0  0  0  0  0  0  0
    4.1894   -2.4328    0.1802 H   0  0  0  0  0  0  0  0  0  0  0  0
    1.9004    1.4867   -0.0373 H   0  0  0  0  0  0  0  0  0  0  0  0
  1  2  1  0  0  0  0
  1 37  1  0  0  0  0
  1 38  1  0  0  0  0
  1 39  1  0  0  0  0
  2  3  1  0  0  0  0
  3  4  1  0  0  0  0
  3 35  2  0  0  0  0
  4  5  2  0  0  0  0
  4 40  1  0  0  0  0
  5  6  1  0  0  0  0
  5  8  1  0  0  0  0
  6  7  1  0  0  0  0
  7 41  1  0  0  0  0
  7 42  1  0  0  0  0
  7 43  1  0  0  0  0
  8  9  2  0  0  0  0
  8 44  1  0  0  0  0
  9 10  1  0  0  0  0
  9 35  1  0  0  0  0
 10 11  1  0  0  0  0
 10 19  1  0  0  0  0
 11 12  1  0  0  0  0
 11 45  1  0  0  0  0
 11 46  1  0  0  0  0
 12 13  1  0  0  0  0
 12 14  1  0  0  0  0
 12 47  1  0  0  0  0
 13 48  1  0  0  0  0
 14 15  1  0  0  0  0
 14 49  1  0  0  0  0
 14 50  1  0  0  0  0
 15 16  1  0  0  0  0
 15 51  1  0  0  0  0
 16 17  1  0  0  0  0
 16 18  1  0  0  0  0
 16 52  1  0  0  0  0
 17 53  1  0  0  0  0
 17 54  1  0  0  0  0
 17 55  1  0  0  0  0
 18 56  1  0  0  0  0
 18 57  1  0  0  0  0
 18 58  1  0  0  0  0
 19 20  1  0  0  0  0
 19 34  2  0  0  0  0
 20 21  2  0  0  0  0
 20 59  1  0  0  0  0
 21 22  1  0  0  0  0
 21 60  1  0  0  0  0
 22 23  1  0  0  0  0
 22 33  2  0  0  0  0
 23 24  2  0  0  0  0
 24 25  1  0  0  0  0
 24 61  1  0  0  0  0
 25 26  1  0  0  0  0
 25 32  2  0  0  0  0
 26 27  1  0  0  0  0
 26 31  2  0  0  0  0
 27 28  2  0  0  0  0
 27 62  1  0  0  0  0
 28 29  1  0  0  0  0
 29 30  1  0  0  0  0
 29 31  1  0  0  0  0
 30 63  1  0  0  0  0
 30 64  1  0  0  0  0
 30 65  1  0  0  0  0
 31 66  1  0  0  0  0
 32 33  1  0  0  0  0
 33 34  1  0  0  0  0
 34 67  1  0  0  0  0
 35 68  1  0  0  0  0
 36 69  1  0  0  0  0
M  END
$$$$
