CHEMBL3936547
 OpenBabel04072215373D

 67 70  0  0  1  0  0  0  0  0999 V2000
   -0.5048   -1.1560   -5.8384 C   0  0  0  0  0  0  0  0  0  0  0  0
   -0.2504    0.1568   -5.0907 C   0  0  1  0  0  0  0  0  0  0  0  0
    1.1796    0.3525   -4.8292 N   0  0  0  0  0  0  0  0  0  0  0  0
    1.8118   -0.5870   -4.0156 C   0  0  0  0  0  0  0  0  0  0  0  0
    1.1377   -1.2902   -3.0787 N   0  0  0  0  0  0  0  0  0  0  0  0
    1.8018   -2.2430   -2.3909 C   0  0  0  0  0  0  0  0  0  0  0  0
    3.0922   -2.6119   -2.4995 N   0  0  0  0  0  0  0  0  0  0  0  0
    3.7225   -1.8785   -3.4265 C   0  0  0  0  0  0  0  0  0  0  0  0
    5.0275   -2.0265   -3.7900 N   0  0  0  0  0  0  0  0  0  0  0  0
    5.3512   -1.1307   -4.7889 C   0  0  0  0  0  0  0  0  0  0  0  0
    6.6643   -1.0373   -5.4194 C   0  0  0  0  0  0  0  0  0  0  0  0
    6.7684   -0.5914   -6.7439 C   0  0  0  0  0  0  0  0  0  0  0  0
    8.0163   -0.4430   -7.3475 C   0  0  0  0  0  0  0  0  0  0  0  0
    9.1861   -0.7274   -6.6348 C   0  0  0  0  0  0  0  0  0  0  0  0
   10.5409   -0.5900   -7.2819 C   0  0  0  0  0  0  0  0  0  0  0  0
   10.7827    0.7790   -7.7244 N   0  0  0  0  0  0  0  0  0  0  0  0
   12.1065    0.9016   -8.3256 C   0  0  0  0  0  0  0  0  0  0  0  0
   12.3138    2.3437   -8.7771 C   0  0  0  0  0  0  0  0  0  0  0  0
   13.6870    2.5244   -9.4208 C   0  0  0  0  0  0  0  0  0  0  0  0
   13.8814    3.9693   -9.8695 C   0  0  0  0  0  0  0  0  0  0  0  0
   15.2464    4.1779  -10.5161 C   0  0  0  0  0  0  0  0  0  0  0  0
   15.4360    5.6157  -10.9467 C   0  0  0  0  0  0  0  0  0  0  0  0
   14.5985    6.5034  -10.8047 O   0  0  0  0  0  0  0  0  0  0  0  0
   16.6597    5.8637  -11.5149 N   0  0  0  0  0  0  0  0  0  0  0  0
   16.8766    7.1834  -11.9693 O   0  0  0  0  0  0  0  0  0  0  0  0
    9.0821   -1.1761   -5.3124 C   0  0  0  0  0  0  0  0  0  0  0  0
    7.8317   -1.3386   -4.7127 C   0  0  0  0  0  0  0  0  0  0  0  0
    4.2047   -0.3956   -5.0406 C   0  0  0  0  0  0  0  0  0  0  0  0
    3.1733   -0.8661   -4.1928 C   0  0  0  0  0  0  0  0  0  0  0  0
   -0.7133    1.3340   -5.9447 C   0  0  0  0  0  0  0  0  0  0  0  0
   -1.7599    2.1605   -5.5123 C   0  0  0  0  0  0  0  0  0  0  0  0
   -2.1045    3.3034   -6.2378 C   0  0  0  0  0  0  0  0  0  0  0  0
   -1.4136    3.6294   -7.4041 C   0  0  0  0  0  0  0  0  0  0  0  0
   -0.4051    2.7916   -7.8725 C   0  0  0  0  0  0  0  0  0  0  0  0
   -0.0660    1.6453   -7.1548 C   0  0  0  0  0  0  0  0  0  0  0  0
   -0.2829   -2.0255   -5.2114 H   0  0  0  0  0  0  0  0  0  0  0  0
    0.1223   -1.2389   -6.7336 H   0  0  0  0  0  0  0  0  0  0  0  0
   -1.5515   -1.2345   -6.1500 H   0  0  0  0  0  0  0  0  0  0  0  0
   -0.8110    0.1599   -4.1466 H   0  0  0  0  0  0  0  0  0  0  0  0
    1.3472    1.2760   -4.4369 H   0  0  0  0  0  0  0  0  0  0  0  0
    1.2158   -2.7940   -1.6609 H   0  0  0  0  0  0  0  0  0  0  0  0
    5.6427   -2.7328   -3.4057 H   0  0  0  0  0  0  0  0  0  0  0  0
    5.8789   -0.3570   -7.3223 H   0  0  0  0  0  0  0  0  0  0  0  0
    8.0730   -0.0831   -8.3756 H   0  0  0  0  0  0  0  0  0  0  0  0
   10.5857   -1.2858   -8.1281 H   0  0  0  0  0  0  0  0  0  0  0  0
   11.3176   -0.8908   -6.5683 H   0  0  0  0  0  0  0  0  0  0  0  0
   10.7049    1.4052   -6.9226 H   0  0  0  0  0  0  0  0  0  0  0  0
   12.1914    0.2326   -9.1904 H   0  0  0  0  0  0  0  0  0  0  0  0
   12.8846    0.6251   -7.6039 H   0  0  0  0  0  0  0  0  0  0  0  0
   12.2208    3.0208   -7.9182 H   0  0  0  0  0  0  0  0  0  0  0  0
   11.5323    2.6239   -9.4951 H   0  0  0  0  0  0  0  0  0  0  0  0
   13.7840    1.8518  -10.2816 H   0  0  0  0  0  0  0  0  0  0  0  0
   14.4702    2.2500   -8.7036 H   0  0  0  0  0  0  0  0  0  0  0  0
   13.7761    4.6390   -9.0065 H   0  0  0  0  0  0  0  0  0  0  0  0
   13.0907    4.2441  -10.5791 H   0  0  0  0  0  0  0  0  0  0  0  0
   15.3499    3.5321  -11.3957 H   0  0  0  0  0  0  0  0  0  0  0  0
   16.0412    3.9229   -9.8054 H   0  0  0  0  0  0  0  0  0  0  0  0
   17.3357    5.1586  -11.7848 H   0  0  0  0  0  0  0  0  0  0  0  0
   16.0404    7.6308  -11.7078 H   0  0  0  0  0  0  0  0  0  0  0  0
    9.9764   -1.3941   -4.7342 H   0  0  0  0  0  0  0  0  0  0  0  0
    7.7925   -1.6766   -3.6810 H   0  0  0  0  0  0  0  0  0  0  0  0
    4.1084    0.3942   -5.7742 H   0  0  0  0  0  0  0  0  0  0  0  0
   -2.3011    1.9323   -4.5970 H   0  0  0  0  0  0  0  0  0  0  0  0
   -2.9001    3.9524   -5.8813 H   0  0  0  0  0  0  0  0  0  0  0  0
   -1.6564    4.5400   -7.9451 H   0  0  0  0  0  0  0  0  0  0  0  0
    0.1338    3.0395   -8.7830 H   0  0  0  0  0  0  0  0  0  0  0  0
    0.7340    1.0055   -7.5237 H   0  0  0  0  0  0  0  0  0  0  0  0
  1  2  1  0  0  0  0
  1 36  1  0  0  0  0
  1 37  1  0  0  0  0
  1 38  1  0  0  0  0
  2  3  1  0  0  0  0
  2 30  1  0  0  0  0
  2 39  1  1  0  0  0
  3  4  1  0  0  0  0
  3 40  1  0  0  0  0
  4  5  1  0  0  0  0
  4 29  2  0  0  0  0
  5  6  2  0  0  0  0
  6  7  1  0  0  0  0
  6 41  1  0  0  0  0
  7  8  2  0  0  0  0
  8  9  1  0  0  0  0
  8 29  1  0  0  0  0
  9 10  1  0  0  0  0
  9 42  1  0  0  0  0
 10 11  1  0  0  0  0
 10 28  2  0  0  0  0
 11 12  1  0  0  0  0
 11 27  2  0  0  0  0
 12 13  2  0  0  0  0
 12 43  1  0  0  0  0
 13 14  1  0  0  0  0
 13 44  1  0  0  0  0
 14 15  1  0  0  0  0
 14 26  2  0  0  0  0
 15 16  1  0  0  0  0
 15 45  1  0  0  0  0
 15 46  1  0  0  0  0
 16 17  1  0  0  0  0
 16 47  1  0  0  0  0
 17 18  1  0  0  0  0
 17 48  1  0  0  0  0
 17 49  1  0  0  0  0
 18 19  1  0  0  0  0
 18 50  1  0  0  0  0
 18 51  1  0  0  0  0
 19 20  1  0  0  0  0
 19 52  1  0  0  0  0
 19 53  1  0  0  0  0
 20 21  1  0  0  0  0
 20 54  1  0  0  0  0
 20 55  1  0  0  0  0
 21 22  1  0  0  0  0
 21 56  1  0  0  0  0
 21 57  1  0  0  0  0
 22 23  2  0  0  0  0
 22 24  1  0  0  0  0
 24 25  1  0  0  0  0
 24 58  1  0  0  0  0
 25 59  1  0  0  0  0
 26 27  1  0  0  0  0
 26 60  1  0  0  0  0
 27 61  1  0  0  0  0
 28 29  1  0  0  0  0
 28 62  1  0  0  0  0
 30 31  1  0  0  0  0
 30 35  2  0  0  0  0
 31 32  2  0  0  0  0
 31 63  1  0  0  0  0
 32 33  1  0  0  0  0
 32 64  1  0  0  0  0
 33 34  2  0  0  0  0
 33 65  1  0  0  0  0
 34 35  1  0  0  0  0
 34 66  1  0  0  0  0
 35 67  1  0  0  0  0
M  END
$$$$
