CHEMBL4783119
 OpenBabel04072215383D

 53 57  0  0  0  0  0  0  0  0999 V2000
    1.2361    0.5678   -0.5207 O   0  0  0  0  0  0  0  0  0  0  0  0
    2.4402    0.3398   -0.6474 C   0  0  0  0  0  0  0  0  0  0  0  0
    2.9746   -0.7313   -1.3111 N   0  0  0  0  0  0  0  0  0  0  0  0
    2.3052   -1.7328   -2.0400 C   0  0  0  0  0  0  0  0  0  0  0  0
    0.9533   -1.6710   -2.3933 C   0  0  0  0  0  0  0  0  0  0  0  0
    0.3670   -2.7076   -3.1164 C   0  0  0  0  0  0  0  0  0  0  0  0
    1.1220   -3.8174   -3.5083 C   0  0  0  0  0  0  0  0  0  0  0  0
    2.4734   -3.8811   -3.1753 C   0  0  0  0  0  0  0  0  0  0  0  0
    3.0598   -2.8414   -2.4490 C   0  0  0  0  0  0  0  0  0  0  0  0
    3.3079    1.2101   -0.0785 N   0  0  0  0  0  0  0  0  0  0  0  0
    4.6918    1.2497   -0.1209 C   0  0  0  0  0  0  0  0  0  0  0  0
    5.2271    2.3532    0.4025 N   0  0  0  0  0  0  0  0  0  0  0  0
    6.5606    2.4382    0.3242 C   0  0  0  0  0  0  0  0  0  0  0  0
    7.3203    3.9926    0.7878 S   0  0  0  0  0  0  0  0  0  0  0  0
    7.5026    4.6449   -0.8304 C   0  0  0  0  0  0  0  0  0  0  0  0
    6.5266    5.3322   -1.5135 C   0  0  0  0  0  0  0  0  0  0  0  0
    7.0300    5.6029   -2.7566 N   0  0  0  0  0  0  0  0  0  0  0  0
    8.1054    4.7768   -2.9941 C   0  0  0  0  0  0  0  0  0  0  0  0
    8.7037    4.3794   -4.1937 C   0  0  0  0  0  0  0  0  0  0  0  0
    9.8417    3.5738   -4.1036 C   0  0  0  0  0  0  0  0  0  0  0  0
   10.4135    3.2757   -2.8676 C   0  0  0  0  0  0  0  0  0  0  0  0
    9.7899    3.6686   -1.6771 C   0  0  0  0  0  0  0  0  0  0  0  0
    8.5580    4.3511   -1.7439 C   0  0  0  0  0  0  0  0  0  0  0  0
    7.3488    1.4481   -0.2162 C   0  0  0  0  0  0  0  0  0  0  0  0
    6.7171    0.3534   -0.7533 C   0  0  0  0  0  0  0  0  0  0  0  0
    7.4425   -0.6601   -1.3348 N   0  0  0  0  0  0  0  0  0  0  0  0
    6.7890   -1.8217   -1.9049 C   0  0  0  0  0  0  0  0  0  0  0  0
    7.9744   -2.7297   -2.1992 C   0  0  0  0  0  0  0  0  0  0  0  0
    9.0471   -1.7623   -2.6833 C   0  0  0  0  0  0  0  0  0  0  0  0
    8.7369   -0.4387   -1.9756 C   0  0  0  0  0  0  0  0  0  0  0  0
    5.3797    0.2478   -0.6898 N   0  0  0  0  0  0  0  0  0  0  0  0
    3.9830   -0.8243   -1.2069 H   0  0  0  0  0  0  0  0  0  0  0  0
    0.3393   -0.8238   -2.1221 H   0  0  0  0  0  0  0  0  0  0  0  0
   -0.6842   -2.6531   -3.3859 H   0  0  0  0  0  0  0  0  0  0  0  0
    0.6602   -4.6241   -4.0669 H   0  0  0  0  0  0  0  0  0  0  0  0
    3.0679   -4.7395   -3.4737 H   0  0  0  0  0  0  0  0  0  0  0  0
    4.1101   -2.9181   -2.1986 H   0  0  0  0  0  0  0  0  0  0  0  0
    2.8817    2.0051    0.3710 H   0  0  0  0  0  0  0  0  0  0  0  0
    5.5290    5.6413   -1.2318 H   0  0  0  0  0  0  0  0  0  0  0  0
    6.6150    6.2256   -3.4359 H   0  0  0  0  0  0  0  0  0  0  0  0
    8.2734    4.6367   -5.1563 H   0  0  0  0  0  0  0  0  0  0  0  0
   10.2960    3.1889   -5.0140 H   0  0  0  0  0  0  0  0  0  0  0  0
   11.3373    2.7044   -2.8260 H   0  0  0  0  0  0  0  0  0  0  0  0
   10.2260    3.4040   -0.7183 H   0  0  0  0  0  0  0  0  0  0  0  0
    8.4224    1.5543   -0.2436 H   0  0  0  0  0  0  0  0  0  0  0  0
    6.2608   -1.5583   -2.8300 H   0  0  0  0  0  0  0  0  0  0  0  0
    6.0972   -2.3015   -1.2069 H   0  0  0  0  0  0  0  0  0  0  0  0
    7.7433   -3.5098   -2.9287 H   0  0  0  0  0  0  0  0  0  0  0  0
    8.3066   -3.2133   -1.2720 H   0  0  0  0  0  0  0  0  0  0  0  0
    8.9857   -1.6330   -3.7692 H   0  0  0  0  0  0  0  0  0  0  0  0
   10.0548   -2.1206   -2.4475 H   0  0  0  0  0  0  0  0  0  0  0  0
    8.6872    0.3735   -2.7115 H   0  0  0  0  0  0  0  0  0  0  0  0
    9.5129   -0.2069   -1.2393 H   0  0  0  0  0  0  0  0  0  0  0  0
  1  2  2  0  0  0  0
  2  3  1  0  0  0  0
  2 10  1  0  0  0  0
  3  4  1  0  0  0  0
  3 32  1  0  0  0  0
  4  5  1  0  0  0  0
  4  9  2  0  0  0  0
  5  6  2  0  0  0  0
  5 33  1  0  0  0  0
  6  7  1  0  0  0  0
  6 34  1  0  0  0  0
  7  8  2  0  0  0  0
  7 35  1  0  0  0  0
  8  9  1  0  0  0  0
  8 36  1  0  0  0  0
  9 37  1  0  0  0  0
 10 11  1  0  0  0  0
 10 38  1  0  0  0  0
 11 12  1  0  0  0  0
 11 31  2  0  0  0  0
 12 13  2  0  0  0  0
 13 14  1  0  0  0  0
 13 24  1  0  0  0  0
 14 15  1  0  0  0  0
 15 16  2  0  0  0  0
 15 23  1  0  0  0  0
 16 17  1  0  0  0  0
 16 39  1  0  0  0  0
 17 18  1  0  0  0  0
 17 40  1  0  0  0  0
 18 19  1  0  0  0  0
 18 23  2  0  0  0  0
 19 20  2  0  0  0  0
 19 41  1  0  0  0  0
 20 21  1  0  0  0  0
 20 42  1  0  0  0  0
 21 22  2  0  0  0  0
 21 43  1  0  0  0  0
 22 23  1  0  0  0  0
 22 44  1  0  0  0  0
 24 25  2  0  0  0  0
 24 45  1  0  0  0  0
 25 26  1  0  0  0  0
 25 31  1  0  0  0  0
 26 27  1  0  0  0  0
 26 30  1  0  0  0  0
 27 28  1  0  0  0  0
 27 46  1  0  0  0  0
 27 47  1  0  0  0  0
 28 29  1  0  0  0  0
 28 48  1  0  0  0  0
 28 49  1  0  0  0  0
 29 30  1  0  0  0  0
 29 50  1  0  0  0  0
 29 51  1  0  0  0  0
 30 52  1  0  0  0  0
 30 53  1  0  0  0  0
M  END
$$$$
