CHEMBL189408
 OpenBabel04072215363D

 68 71  0  0  0  0  0  0  0  0999 V2000
    1.1963   -0.1047   -0.0008 C   0  0  0  0  0  0  0  0  0  0  0  0
    2.6409    0.0974    0.1791 N   0  0  0  0  0  0  0  0  0  0  0  0
    3.3284   -0.8611    0.9471 C   0  0  0  0  0  0  0  0  0  0  0  0
    2.9318   -2.1981    0.9917 C   0  0  0  0  0  0  0  0  0  0  0  0
    3.6551   -3.1431    1.7222 C   0  0  0  0  0  0  0  0  0  0  0  0
    4.8045   -2.7885    2.4294 C   0  0  0  0  0  0  0  0  0  0  0  0
    5.5838   -3.7205    3.1534 N   0  0  0  0  0  0  0  0  0  0  0  0
    5.3402   -5.0737    3.2385 C   0  0  0  0  0  0  0  0  0  0  0  0
    4.4271   -5.6850    2.6957 O   0  0  0  0  0  0  0  0  0  0  0  0
    6.2647   -5.7368    4.0235 N   0  0  0  0  0  0  0  0  0  0  0  0
    5.9960   -7.1462    4.2749 C   0  0  0  0  0  0  0  0  0  0  0  0
    7.0382   -7.8223    5.1547 C   0  0  0  0  0  0  0  0  0  0  0  0
    6.7493   -9.2955    5.3197 C   0  0  0  0  0  0  0  0  0  0  0  0
    7.2673  -10.2244    4.4064 C   0  0  0  0  0  0  0  0  0  0  0  0
    7.0127  -11.5884    4.5608 C   0  0  0  0  0  0  0  0  0  0  0  0
    6.2295  -12.0368    5.6222 C   0  0  0  0  0  0  0  0  0  0  0  0
    5.6853  -11.1200    6.5196 C   0  0  0  0  0  0  0  0  0  0  0  0
    5.9383   -9.7548    6.3668 C   0  0  0  0  0  0  0  0  0  0  0  0
    5.2043   -1.4510    2.4119 C   0  0  0  0  0  0  0  0  0  0  0  0
    4.4688   -0.5008    1.6863 C   0  0  0  0  0  0  0  0  0  0  0  0
    3.2048    0.9087   -0.8401 C   0  0  0  0  0  0  0  0  0  0  0  0
    4.4943    0.7037   -1.2930 C   0  0  0  0  0  0  0  0  0  0  0  0
    4.9577    1.5462   -2.2761 C   0  0  0  0  0  0  0  0  0  0  0  0
    4.2243    2.5413   -2.7990 N   0  0  0  0  0  0  0  0  0  0  0  0
    2.9889    2.6852   -2.3117 C   0  0  0  0  0  0  0  0  0  0  0  0
    2.2304    3.7451   -2.8183 N   0  0  0  0  0  0  0  0  0  0  0  0
    1.2979    4.5066   -2.0901 C   0  0  0  0  0  0  0  0  0  0  0  0
    0.2768    5.1749   -2.7674 C   0  0  0  0  0  0  0  0  0  0  0  0
   -0.6675    5.9232   -2.0613 C   0  0  0  0  0  0  0  0  0  0  0  0
   -0.5875    6.0297   -0.6704 C   0  0  0  0  0  0  0  0  0  0  0  0
    0.4520    5.4072    0.0282 C   0  0  0  0  0  0  0  0  0  0  0  0
    0.6018    5.5610    1.5178 C   0  0  0  0  0  0  0  0  0  0  0  0
   -0.3209    4.3303    2.4294 S   0  0  0  0  0  0  0  0  0  0  0  0
    0.3325    2.7728    1.8920 C   0  0  0  0  0  0  0  0  0  0  0  0
    0.0486    4.4746    3.8279 O   0  0  0  0  0  0  0  0  0  0  0  0
   -1.7189    4.3889    2.0440 O   0  0  0  0  0  0  0  0  0  0  0  0
    1.3900    4.6603   -0.6983 C   0  0  0  0  0  0  0  0  0  0  0  0
    2.4589    1.8942   -1.3653 N   0  0  0  0  0  0  0  0  0  0  0  0
    0.7483   -0.6656    0.8305 H   0  0  0  0  0  0  0  0  0  0  0  0
    0.9786   -0.6362   -0.9340 H   0  0  0  0  0  0  0  0  0  0  0  0
    0.6580    0.8440   -0.0238 H   0  0  0  0  0  0  0  0  0  0  0  0
    2.0709   -2.5497    0.4298 H   0  0  0  0  0  0  0  0  0  0  0  0
    3.2810   -4.1601    1.6937 H   0  0  0  0  0  0  0  0  0  0  0  0
    6.4252   -3.3800    3.5917 H   0  0  0  0  0  0  0  0  0  0  0  0
    6.7104   -5.2011    4.7526 H   0  0  0  0  0  0  0  0  0  0  0  0
    5.9343   -7.6478    3.3003 H   0  0  0  0  0  0  0  0  0  0  0  0
    5.0030   -7.2195    4.7370 H   0  0  0  0  0  0  0  0  0  0  0  0
    7.0669   -7.3402    6.1401 H   0  0  0  0  0  0  0  0  0  0  0  0
    8.0401   -7.6886    4.7287 H   0  0  0  0  0  0  0  0  0  0  0  0
    7.8742   -9.8913    3.5673 H   0  0  0  0  0  0  0  0  0  0  0  0
    7.4269  -12.3015    3.8527 H   0  0  0  0  0  0  0  0  0  0  0  0
    6.0396  -13.0997    5.7470 H   0  0  0  0  0  0  0  0  0  0  0  0
    5.0639  -11.4694    7.3403 H   0  0  0  0  0  0  0  0  0  0  0  0
    5.4982   -9.0544    7.0729 H   0  0  0  0  0  0  0  0  0  0  0  0
    6.0876   -1.1210    2.9515 H   0  0  0  0  0  0  0  0  0  0  0  0
    4.7934    0.5385    1.7021 H   0  0  0  0  0  0  0  0  0  0  0  0
    5.1223   -0.0954   -0.9267 H   0  0  0  0  0  0  0  0  0  0  0  0
    5.9557    1.4366   -2.6768 H   0  0  0  0  0  0  0  0  0  0  0  0
    2.8358    4.3012   -3.4090 H   0  0  0  0  0  0  0  0  0  0  0  0
    0.1896    5.0873   -3.8479 H   0  0  0  0  0  0  0  0  0  0  0  0
   -1.4732    6.4189   -2.5977 H   0  0  0  0  0  0  0  0  0  0  0  0
   -1.3405    6.6104   -0.1405 H   0  0  0  0  0  0  0  0  0  0  0  0
    0.2446    6.5421    1.8454 H   0  0  0  0  0  0  0  0  0  0  0  0
    1.6514    5.4722    1.8185 H   0  0  0  0  0  0  0  0  0  0  0  0
    1.4184    2.7755    2.0058 H   0  0  0  0  0  0  0  0  0  0  0  0
    0.0397    2.6290    0.8539 H   0  0  0  0  0  0  0  0  0  0  0  0
   -0.1005    1.9824    2.5095 H   0  0  0  0  0  0  0  0  0  0  0  0
    2.2142    4.1868   -0.1682 H   0  0  0  0  0  0  0  0  0  0  0  0
  1  2  1  0  0  0  0
  1 39  1  0  0  0  0
  1 40  1  0  0  0  0
  1 41  1  0  0  0  0
  2  3  1  0  0  0  0
  2 21  1  0  0  0  0
  3  4  1  0  0  0  0
  3 20  2  0  0  0  0
  4  5  2  0  0  0  0
  4 42  1  0  0  0  0
  5  6  1  0  0  0  0
  5 43  1  0  0  0  0
  6  7  1  0  0  0  0
  6 19  2  0  0  0  0
  7  8  1  0  0  0  0
  7 44  1  0  0  0  0
  8  9  2  0  0  0  0
  8 10  1  0  0  0  0
 10 11  1  0  0  0  0
 10 45  1  0  0  0  0
 11 12  1  0  0  0  0
 11 46  1  0  0  0  0
 11 47  1  0  0  0  0
 12 13  1  0  0  0  0
 12 48  1  0  0  0  0
 12 49  1  0  0  0  0
 13 14  1  0  0  0  0
 13 18  2  0  0  0  0
 14 15  2  0  0  0  0
 14 50  1  0  0  0  0
 15 16  1  0  0  0  0
 15 51  1  0  0  0  0
 16 17  2  0  0  0  0
 16 52  1  0  0  0  0
 17 18  1  0  0  0  0
 17 53  1  0  0  0  0
 18 54  1  0  0  0  0
 19 20  1  0  0  0  0
 19 55  1  0  0  0  0
 20 56  1  0  0  0  0
 21 22  1  0  0  0  0
 21 38  2  0  0  0  0
 22 23  2  0  0  0  0
 22 57  1  0  0  0  0
 23 24  1  0  0  0  0
 23 58  1  0  0  0  0
 24 25  2  0  0  0  0
 25 26  1  0  0  0  0
 25 38  1  0  0  0  0
 26 27  1  0  0  0  0
 26 59  1  0  0  0  0
 27 28  1  0  0  0  0
 27 37  2  0  0  0  0
 28 29  2  0  0  0  0
 28 60  1  0  0  0  0
 29 30  1  0  0  0  0
 29 61  1  0  0  0  0
 30 31  2  0  0  0  0
 30 62  1  0  0  0  0
 31 32  1  0  0  0  0
 31 37  1  0  0  0  0
 32 33  1  0  0  0  0
 32 63  1  0  0  0  0
 32 64  1  0  0  0  0
 33 34  1  0  0  0  0
 33 35  2  0  0  0  0
 33 36  2  0  0  0  0
 34 65  1  0  0  0  0
 34 66  1  0  0  0  0
 34 67  1  0  0  0  0
 37 68  1  0  0  0  0
M  END
$$$$
