CHEMBL149636
 OpenBabel04072215363D

 58 63  0  0  0  0  0  0  0  0999 V2000
    5.1430    0.7884   -2.6980 C   0  0  0  0  0  0  0  0  0  0  0  0
    4.5732    0.3294   -1.3703 C   0  0  0  0  0  0  0  0  0  0  0  0
    5.5889    0.9782   -0.0216 S   0  0  0  0  0  0  0  0  0  0  0  0
    4.6137    0.3166    1.3703 C   0  0  0  0  0  0  0  0  0  0  0  0
    5.2018    0.7782    2.6746 C   0  0  0  0  0  0  0  0  0  0  0  0
    5.9046   -0.1093    3.4989 C   0  0  0  0  0  0  0  0  0  0  0  0
    6.5558    0.3184    4.6588 C   0  0  0  0  0  0  0  0  0  0  0  0
    6.5472    1.6899    4.9635 C   0  0  0  0  0  0  0  0  0  0  0  0
    5.7898    2.5854    4.1709 C   0  0  0  0  0  0  0  0  0  0  0  0
    5.1153    2.1324    3.0537 C   0  0  0  0  0  0  0  0  0  0  0  0
    5.9107    3.7574    4.8727 C   0  0  0  0  0  0  0  0  0  0  0  0
    4.8703    4.7120    4.9714 C   0  0  0  0  0  0  0  0  0  0  0  0
    4.7784    5.4053    6.2499 C   0  0  0  0  0  0  0  0  0  0  0  0
    5.7854    5.2319    7.2083 C   0  0  0  0  0  0  0  0  0  0  0  0
    7.0003    4.9061    6.5935 C   0  0  0  0  0  0  0  0  0  0  0  0
    6.8980    3.7809    5.8116 C   0  0  0  0  0  0  0  0  0  0  0  0
    7.0602    2.4053    6.0678 N   0  0  0  0  0  0  0  0  0  0  0  0
    7.0579    1.8634    7.4242 C   0  0  0  0  0  0  0  0  0  0  0  0
    7.6780    0.5132    7.7559 C   0  0  0  0  0  0  0  0  0  0  0  0
    9.1561    0.4775    7.4362 C   0  0  0  0  0  0  0  0  0  0  0  0
    9.6857   -0.8008    7.7563 O   0  0  0  0  0  0  0  0  0  0  0  0
    8.0795    5.5160    7.3817 C   0  0  0  0  0  0  0  0  0  0  0  0
    7.5515    5.1461    8.7371 C   0  0  0  0  0  0  0  0  0  0  0  0
    8.3931    4.5300    9.6597 C   0  0  0  0  0  0  0  0  0  0  0  0
    7.8160    3.6103   10.5118 C   0  0  0  0  0  0  0  0  0  0  0  0
    6.4210    3.4086   10.4790 C   0  0  0  0  0  0  0  0  0  0  0  0
    5.5623    4.1026    9.5673 C   0  0  0  0  0  0  0  0  0  0  0  0
    6.1189    4.9851    8.6370 C   0  0  0  0  0  0  0  0  0  0  0  0
    4.1386    6.6925    5.9364 C   0  0  0  0  0  0  0  0  0  0  0  0
    4.0146    7.7131    6.5818 O   0  0  0  0  0  0  0  0  0  0  0  0
    3.8492    6.6270    4.5565 N   0  0  0  0  0  0  0  0  0  0  0  0
    4.2325    5.4084    3.8635 C   0  0  0  0  0  0  0  0  0  0  0  0
    4.5381    0.3898   -3.5179 H   0  0  0  0  0  0  0  0  0  0  0  0
    6.1702    0.4340   -2.8390 H   0  0  0  0  0  0  0  0  0  0  0  0
    5.1373    1.8811   -2.7815 H   0  0  0  0  0  0  0  0  0  0  0  0
    4.5683   -0.7633   -1.3197 H   0  0  0  0  0  0  0  0  0  0  0  0
    3.5472    0.6933   -1.2586 H   0  0  0  0  0  0  0  0  0  0  0  0
    4.6146   -0.7699    1.3201 H   0  0  0  0  0  0  0  0  0  0  0  0
    3.5838    0.6706    1.3065 H   0  0  0  0  0  0  0  0  0  0  0  0
    5.9469   -1.1681    3.2479 H   0  0  0  0  0  0  0  0  0  0  0  0
    7.0787   -0.4084    5.2641 H   0  0  0  0  0  0  0  0  0  0  0  0
    4.5764    2.8328    2.4150 H   0  0  0  0  0  0  0  0  0  0  0  0
    6.0055    1.8511    7.7393 H   0  0  0  0  0  0  0  0  0  0  0  0
    7.5938    2.5835    8.0278 H   0  0  0  0  0  0  0  0  0  0  0  0
    7.1431   -0.3239    7.2971 H   0  0  0  0  0  0  0  0  0  0  0  0
    7.5506    0.3291    8.8364 H   0  0  0  0  0  0  0  0  0  0  0  0
    9.6987    1.2350    8.0127 H   0  0  0  0  0  0  0  0  0  0  0  0
    9.3312    0.6609    6.3735 H   0  0  0  0  0  0  0  0  0  0  0  0
    9.6657   -0.8968    8.7238 H   0  0  0  0  0  0  0  0  0  0  0  0
    8.0124    6.6133    7.2788 H   0  0  0  0  0  0  0  0  0  0  0  0
    9.0763    5.1796    7.1175 H   0  0  0  0  0  0  0  0  0  0  0  0
    9.4719    4.5922    9.5370 H   0  0  0  0  0  0  0  0  0  0  0  0
    8.4650    2.9691   11.1065 H   0  0  0  0  0  0  0  0  0  0  0  0
    6.0208    2.6070   11.1027 H   0  0  0  0  0  0  0  0  0  0  0  0
    4.5303    3.7671    9.4936 H   0  0  0  0  0  0  0  0  0  0  0  0
    3.7909    7.5075    4.0610 H   0  0  0  0  0  0  0  0  0  0  0  0
    4.9530    5.6398    3.0728 H   0  0  0  0  0  0  0  0  0  0  0  0
    3.3491    4.9090    3.4741 H   0  0  0  0  0  0  0  0  0  0  0  0
  1  2  1  0  0  0  0
  1 33  1  0  0  0  0
  1 34  1  0  0  0  0
  1 35  1  0  0  0  0
  2  3  1  0  0  0  0
  2 36  1  0  0  0  0
  2 37  1  0  0  0  0
  3  4  1  0  0  0  0
  4  5  1  0  0  0  0
  4 38  1  0  0  0  0
  4 39  1  0  0  0  0
  5  6  1  0  0  0  0
  5 10  2  0  0  0  0
  6  7  2  0  0  0  0
  6 40  1  0  0  0  0
  7  8  1  0  0  0  0
  7 41  1  0  0  0  0
  8  9  2  0  0  0  0
  8 17  1  0  0  0  0
  9 10  1  0  0  0  0
  9 11  1  0  0  0  0
 10 42  1  0  0  0  0
 11 12  1  0  0  0  0
 11 16  2  0  0  0  0
 12 13  2  0  0  0  0
 12 32  1  0  0  0  0
 13 14  1  0  0  0  0
 13 29  1  0  0  0  0
 14 15  2  0  0  0  0
 14 28  1  0  0  0  0
 15 16  1  0  0  0  0
 15 22  1  0  0  0  0
 16 17  1  0  0  0  0
 17 18  1  0  0  0  0
 18 19  1  0  0  0  0
 18 43  1  0  0  0  0
 18 44  1  0  0  0  0
 19 20  1  0  0  0  0
 19 45  1  0  0  0  0
 19 46  1  0  0  0  0
 20 21  1  0  0  0  0
 20 47  1  0  0  0  0
 20 48  1  0  0  0  0
 21 49  1  0  0  0  0
 22 23  1  0  0  0  0
 22 50  1  0  0  0  0
 22 51  1  0  0  0  0
 23 24  1  0  0  0  0
 23 28  2  0  0  0  0
 24 25  2  0  0  0  0
 24 52  1  0  0  0  0
 25 26  1  0  0  0  0
 25 53  1  0  0  0  0
 26 27  2  0  0  0  0
 26 54  1  0  0  0  0
 27 28  1  0  0  0  0
 27 55  1  0  0  0  0
 29 30  2  0  0  0  0
 29 31  1  0  0  0  0
 31 32  1  0  0  0  0
 31 56  1  0  0  0  0
 32 57  1  0  0  0  0
 32 58  1  0  0  0  0
M  END
$$$$
