CHEMBL3932285
 OpenBabel04072215373D

 56 59  0  0  0  0  0  0  0  0999 V2000
    0.4233    0.9621    0.3367 C   0  0  0  0  0  0  0  0  0  0  0  0
    1.6433    1.4993   -0.1703 O   0  0  0  0  0  0  0  0  0  0  0  0
    2.6200    1.7883    0.7447 C   0  0  0  0  0  0  0  0  0  0  0  0
    2.5021    1.6781    2.1159 C   0  0  0  0  0  0  0  0  0  0  0  0
    3.5696    2.0283    2.9479 C   0  0  0  0  0  0  0  0  0  0  0  0
    3.2258    1.9965    4.2790 O   0  0  0  0  0  0  0  0  0  0  0  0
    4.0664    1.2640    5.1624 C   0  0  0  0  0  0  0  0  0  0  0  0
    4.7983    2.5147    2.4122 C   0  0  0  0  0  0  0  0  0  0  0  0
    5.9188    2.8340    3.3660 C   0  0  0  0  0  0  0  0  0  0  0  0
    4.9545    2.6245    0.9870 C   0  0  0  0  0  0  0  0  0  0  0  0
    6.1699    3.0830    0.3700 N   0  0  0  0  0  0  0  0  0  0  0  0
    6.4346    2.7089   -1.0674 C   0  0  0  0  0  0  0  0  0  0  0  0
    7.4309    1.5490   -1.2335 C   0  0  0  0  0  0  0  0  0  0  0  0
    6.8858    0.2980   -0.8351 O   0  0  0  0  0  0  0  0  0  0  0  0
    6.9141    4.2573    0.7051 C   0  0  0  0  0  0  0  0  0  0  0  0
    6.3325    5.3652    1.3301 C   0  0  0  0  0  0  0  0  0  0  0  0
    7.0899    6.5092    1.6230 C   0  0  0  0  0  0  0  0  0  0  0  0
    8.4281    6.6067    1.2629 C   0  0  0  0  0  0  0  0  0  0  0  0
    9.1165    7.7433    1.4879 N   0  0  0  0  0  0  0  0  0  0  0  0
   10.4128    7.7516    1.0915 C   0  0  0  0  0  0  0  0  0  0  0  0
   11.0362    6.6588    0.5045 C   0  0  0  0  0  0  0  0  0  0  0  0
   12.4423    6.6787    0.1451 C   0  0  0  0  0  0  0  0  0  0  0  0
   13.4263    7.6798    0.3192 C   0  0  0  0  0  0  0  0  0  0  0  0
   14.6353    7.3005   -0.0990 N   0  0  0  0  0  0  0  0  0  0  0  0
   14.4371    6.0458   -0.5400 N   0  0  0  0  0  0  0  0  0  0  0  0
   15.5550    5.2661   -1.0132 C   0  0  0  0  0  0  0  0  0  0  0  0
   13.1386    5.6356   -0.4394 C   0  0  0  0  0  0  0  0  0  0  0  0
   10.3457    5.5165    0.2782 N   0  0  0  0  0  0  0  0  0  0  0  0
    9.0470    5.5001    0.6493 C   0  0  0  0  0  0  0  0  0  0  0  0
    8.2947    4.3599    0.4087 C   0  0  0  0  0  0  0  0  0  0  0  0
    3.8232    2.2586    0.2041 C   0  0  0  0  0  0  0  0  0  0  0  0
   -0.2516    0.7963   -0.5121 H   0  0  0  0  0  0  0  0  0  0  0  0
   -0.0708    1.6715    1.0113 H   0  0  0  0  0  0  0  0  0  0  0  0
    0.5924    0.0008    0.8264 H   0  0  0  0  0  0  0  0  0  0  0  0
    1.5814    1.3363    2.5831 H   0  0  0  0  0  0  0  0  0  0  0  0
    3.4291    0.7036    5.8544 H   0  0  0  0  0  0  0  0  0  0  0  0
    4.6363    1.9683    5.7767 H   0  0  0  0  0  0  0  0  0  0  0  0
    4.7329    0.5604    4.6569 H   0  0  0  0  0  0  0  0  0  0  0  0
    5.5361    3.1379    4.3410 H   0  0  0  0  0  0  0  0  0  0  0  0
    6.5228    3.6858    3.0817 H   0  0  0  0  0  0  0  0  0  0  0  0
    6.5761    1.9680    3.4772 H   0  0  0  0  0  0  0  0  0  0  0  0
    6.8242    3.5793   -1.6162 H   0  0  0  0  0  0  0  0  0  0  0  0
    5.5355    2.4469   -1.6229 H   0  0  0  0  0  0  0  0  0  0  0  0
    8.3629    1.6907   -0.6846 H   0  0  0  0  0  0  0  0  0  0  0  0
    7.6942    1.4668   -2.2943 H   0  0  0  0  0  0  0  0  0  0  0  0
    6.8621    0.3122    0.1389 H   0  0  0  0  0  0  0  0  0  0  0  0
    5.2821    5.3488    1.6114 H   0  0  0  0  0  0  0  0  0  0  0  0
    6.6231    7.3427    2.1394 H   0  0  0  0  0  0  0  0  0  0  0  0
   10.9344    8.6848    1.2720 H   0  0  0  0  0  0  0  0  0  0  0  0
   13.3203    8.6675    0.7464 H   0  0  0  0  0  0  0  0  0  0  0  0
   16.4630    5.8756   -0.9859 H   0  0  0  0  0  0  0  0  0  0  0  0
   15.3497    4.9491   -2.0378 H   0  0  0  0  0  0  0  0  0  0  0  0
   15.6717    4.4004   -0.3561 H   0  0  0  0  0  0  0  0  0  0  0  0
   12.8263    4.6505   -0.7588 H   0  0  0  0  0  0  0  0  0  0  0  0
    8.8320    3.5323   -0.0313 H   0  0  0  0  0  0  0  0  0  0  0  0
    3.8182    2.3729   -0.8681 H   0  0  0  0  0  0  0  0  0  0  0  0
  1  2  1  0  0  0  0
  1 32  1  0  0  0  0
  1 33  1  0  0  0  0
  1 34  1  0  0  0  0
  2  3  1  0  0  0  0
  3  4  1  0  0  0  0
  3 31  2  0  0  0  0
  4  5  2  0  0  0  0
  4 35  1  0  0  0  0
  5  6  1  0  0  0  0
  5  8  1  0  0  0  0
  6  7  1  0  0  0  0
  7 36  1  0  0  0  0
  7 37  1  0  0  0  0
  7 38  1  0  0  0  0
  8  9  1  0  0  0  0
  8 10  2  0  0  0  0
  9 39  1  0  0  0  0
  9 40  1  0  0  0  0
  9 41  1  0  0  0  0
 10 11  1  0  0  0  0
 10 31  1  0  0  0  0
 11 12  1  0  0  0  0
 11 15  1  0  0  0  0
 12 13  1  0  0  0  0
 12 42  1  0  0  0  0
 12 43  1  0  0  0  0
 13 14  1  0  0  0  0
 13 44  1  0  0  0  0
 13 45  1  0  0  0  0
 14 46  1  0  0  0  0
 15 16  1  0  0  0  0
 15 30  2  0  0  0  0
 16 17  2  0  0  0  0
 16 47  1  0  0  0  0
 17 18  1  0  0  0  0
 17 48  1  0  0  0  0
 18 19  1  0  0  0  0
 18 29  2  0  0  0  0
 19 20  2  0  0  0  0
 20 21  1  0  0  0  0
 20 49  1  0  0  0  0
 21 22  1  0  0  0  0
 21 28  2  0  0  0  0
 22 23  1  0  0  0  0
 22 27  2  0  0  0  0
 23 24  2  0  0  0  0
 23 50  1  0  0  0  0
 24 25  1  0  0  0  0
 25 26  1  0  0  0  0
 25 27  1  0  0  0  0
 26 51  1  0  0  0  0
 26 52  1  0  0  0  0
 26 53  1  0  0  0  0
 27 54  1  0  0  0  0
 28 29  1  0  0  0  0
 29 30  1  0  0  0  0
 30 55  1  0  0  0  0
 31 56  1  0  0  0  0
M  END
$$$$
