CHEMBL370328
 OpenBabel04072215373D

 88 91  0  0  0  0  0  0  0  0999 V2000
    1.4978   -2.9491   -4.2128 C   0  0  0  0  0  0  0  0  0  0  0  0
    2.8481   -2.8892   -3.7659 O   0  0  0  0  0  0  0  0  0  0  0  0
    3.0429   -2.6850   -2.4265 C   0  0  0  0  0  0  0  0  0  0  0  0
    2.0422   -2.4164   -1.4883 C   0  0  0  0  0  0  0  0  0  0  0  0
    2.3873   -2.2444   -0.1517 C   0  0  0  0  0  0  0  0  0  0  0  0
    1.4921   -2.0484    0.8661 O   0  0  0  0  0  0  0  0  0  0  0  0
    0.2062   -2.6334    0.6789 C   0  0  0  0  0  0  0  0  0  0  0  0
    3.7302   -2.2685    0.2297 C   0  0  0  0  0  0  0  0  0  0  0  0
    4.7668   -2.5772   -0.6790 C   0  0  0  0  0  0  0  0  0  0  0  0
    6.1611   -2.8033   -0.2036 C   0  0  0  0  0  0  0  0  0  0  0  0
    6.3436   -3.3802    1.0642 C   0  0  0  0  0  0  0  0  0  0  0  0
    7.6152   -3.6477    1.5793 C   0  0  0  0  0  0  0  0  0  0  0  0
    7.7971   -4.1329    2.8671 C   0  0  0  0  0  0  0  0  0  0  0  0
    9.0013   -4.3451    3.4249 N   0  0  0  0  0  0  0  0  0  0  0  0
   10.0925   -4.0783    2.6881 C   0  0  0  0  0  0  0  0  0  0  0  0
   11.3574   -4.2369    3.3148 N   0  0  0  0  0  0  0  0  0  0  0  0
   11.6005   -5.3606    4.2353 C   0  0  0  0  0  0  0  0  0  0  0  0
   10.6360   -6.5501    4.2383 C   0  0  0  0  0  0  0  0  0  0  0  0
   11.1277   -7.7035    5.1224 C   0  0  0  0  0  0  0  0  0  0  0  0
   10.0863   -8.8279    5.1308 C   0  0  0  0  0  0  0  0  0  0  0  0
   10.4961  -10.0297    5.9718 C   0  0  0  0  0  0  0  0  0  0  0  0
   10.6330   -9.6409    7.3356 O   0  0  0  0  0  0  0  0  0  0  0  0
   10.9884  -10.7538    8.1574 C   0  0  0  0  0  0  0  0  0  0  0  0
   11.1819  -10.3310    9.5927 C   0  0  0  0  0  0  0  0  0  0  0  0
   10.9311  -11.2444   10.6283 C   0  0  0  0  0  0  0  0  0  0  0  0
   11.1661  -10.8938   11.9593 C   0  0  0  0  0  0  0  0  0  0  0  0
   11.6617   -9.6292   12.2699 C   0  0  0  0  0  0  0  0  0  0  0  0
   11.9207   -8.7146   11.2514 C   0  0  0  0  0  0  0  0  0  0  0  0
   11.6875   -9.0651    9.9202 C   0  0  0  0  0  0  0  0  0  0  0  0
   12.2947   -3.2040    3.4086 C   0  0  0  0  0  0  0  0  0  0  0  0
   11.9734   -1.8383    2.8471 C   0  0  0  0  0  0  0  0  0  0  0  0
   13.3790   -3.3583    3.9832 O   0  0  0  0  0  0  0  0  0  0  0  0
    9.9858   -3.6491    1.3604 C   0  0  0  0  0  0  0  0  0  0  0  0
    8.7350   -3.4103    0.7844 C   0  0  0  0  0  0  0  0  0  0  0  0
    8.5958   -2.9434   -0.4800 N   0  0  0  0  0  0  0  0  0  0  0  0
    7.3514   -2.5831   -0.9250 C   0  0  0  0  0  0  0  0  0  0  0  0
    7.3431   -1.9883   -2.2124 N   0  0  0  0  0  0  0  0  0  0  0  0
    7.3431   -0.6013   -2.2733 C   0  0  0  0  0  0  0  0  0  0  0  0
    7.3611    0.1372   -1.2991 O   0  0  0  0  0  0  0  0  0  0  0  0
    7.3928   -0.1587   -3.5870 N   0  0  0  0  0  0  0  0  0  0  0  0
    7.5740    1.2614   -3.9680 C   0  0  0  0  0  0  0  0  0  0  0  0
    8.9701    1.7454   -3.5385 C   0  0  0  0  0  0  0  0  0  0  0  0
    7.4864    1.4014   -5.5029 C   0  0  0  0  0  0  0  0  0  0  0  0
    6.4931    2.1676   -3.3573 C   0  0  0  0  0  0  0  0  0  0  0  0
    4.3822   -2.7818   -2.0130 C   0  0  0  0  0  0  0  0  0  0  0  0
    1.5092   -3.1469   -5.2916 H   0  0  0  0  0  0  0  0  0  0  0  0
    0.9843   -1.9948   -4.0571 H   0  0  0  0  0  0  0  0  0  0  0  0
    0.9609   -3.7715   -3.7285 H   0  0  0  0  0  0  0  0  0  0  0  0
    1.0092   -2.3371   -1.7879 H   0  0  0  0  0  0  0  0  0  0  0  0
   -0.2416   -2.7877    1.6658 H   0  0  0  0  0  0  0  0  0  0  0  0
    0.2583   -3.6128    0.1890 H   0  0  0  0  0  0  0  0  0  0  0  0
   -0.4389   -1.9518    0.1157 H   0  0  0  0  0  0  0  0  0  0  0  0
    3.9529   -2.0777    1.2785 H   0  0  0  0  0  0  0  0  0  0  0  0
    5.4805   -3.6316    1.6796 H   0  0  0  0  0  0  0  0  0  0  0  0
    6.9547   -4.3491    3.5194 H   0  0  0  0  0  0  0  0  0  0  0  0
   11.6800   -4.9498    5.2518 H   0  0  0  0  0  0  0  0  0  0  0  0
   12.5989   -5.7432    3.9814 H   0  0  0  0  0  0  0  0  0  0  0  0
   10.4832   -6.9109    3.2156 H   0  0  0  0  0  0  0  0  0  0  0  0
    9.6653   -6.2402    4.6344 H   0  0  0  0  0  0  0  0  0  0  0  0
   11.2945   -7.3382    6.1437 H   0  0  0  0  0  0  0  0  0  0  0  0
   12.0878   -8.0817    4.7503 H   0  0  0  0  0  0  0  0  0  0  0  0
    9.9036   -9.1618    4.1027 H   0  0  0  0  0  0  0  0  0  0  0  0
    9.1417   -8.4278    5.5204 H   0  0  0  0  0  0  0  0  0  0  0  0
   11.4421  -10.4454    5.6061 H   0  0  0  0  0  0  0  0  0  0  0  0
    9.7192  -10.7991    5.8932 H   0  0  0  0  0  0  0  0  0  0  0  0
   11.9246  -11.1955    7.7960 H   0  0  0  0  0  0  0  0  0  0  0  0
   10.1895  -11.5026    8.0963 H   0  0  0  0  0  0  0  0  0  0  0  0
   10.5522  -12.2390   10.4037 H   0  0  0  0  0  0  0  0  0  0  0  0
   10.9665  -11.6087   12.7530 H   0  0  0  0  0  0  0  0  0  0  0  0
   11.8489   -9.3568   13.3050 H   0  0  0  0  0  0  0  0  0  0  0  0
   12.3083   -7.7279   11.4905 H   0  0  0  0  0  0  0  0  0  0  0  0
   11.9005   -8.3435    9.1340 H   0  0  0  0  0  0  0  0  0  0  0  0
   10.9075   -1.6072    2.8626 H   0  0  0  0  0  0  0  0  0  0  0  0
   12.3746   -1.7602    1.8339 H   0  0  0  0  0  0  0  0  0  0  0  0
   12.4596   -1.0842    3.4759 H   0  0  0  0  0  0  0  0  0  0  0  0
   10.8743   -3.4919    0.7580 H   0  0  0  0  0  0  0  0  0  0  0  0
    8.1371   -2.3107   -2.7462 H   0  0  0  0  0  0  0  0  0  0  0  0
    6.8703   -0.7407   -4.2303 H   0  0  0  0  0  0  0  0  0  0  0  0
    9.7555    1.1344   -4.0000 H   0  0  0  0  0  0  0  0  0  0  0  0
    9.1086    1.6898   -2.4545 H   0  0  0  0  0  0  0  0  0  0  0  0
    9.1388    2.7862   -3.8391 H   0  0  0  0  0  0  0  0  0  0  0  0
    8.2561    0.8080   -6.0086 H   0  0  0  0  0  0  0  0  0  0  0  0
    7.6198    2.4463   -5.8108 H   0  0  0  0  0  0  0  0  0  0  0  0
    6.5120    1.0701   -5.8795 H   0  0  0  0  0  0  0  0  0  0  0  0
    6.5540    2.2087   -2.2660 H   0  0  0  0  0  0  0  0  0  0  0  0
    5.4893    1.8166   -3.6216 H   0  0  0  0  0  0  0  0  0  0  0  0
    6.5948    3.1985   -3.7179 H   0  0  0  0  0  0  0  0  0  0  0  0
    5.1144   -3.0557   -2.7648 H   0  0  0  0  0  0  0  0  0  0  0  0
  1  2  1  0  0  0  0
  1 46  1  0  0  0  0
  1 47  1  0  0  0  0
  1 48  1  0  0  0  0
  2  3  1  0  0  0  0
  3  4  1  0  0  0  0
  3 45  2  0  0  0  0
  4  5  2  0  0  0  0
  4 49  1  0  0  0  0
  5  6  1  0  0  0  0
  5  8  1  0  0  0  0
  6  7  1  0  0  0  0
  7 50  1  0  0  0  0
  7 51  1  0  0  0  0
  7 52  1  0  0  0  0
  8  9  2  0  0  0  0
  8 53  1  0  0  0  0
  9 10  1  0  0  0  0
  9 45  1  0  0  0  0
 10 11  1  0  0  0  0
 10 36  2  0  0  0  0
 11 12  2  0  0  0  0
 11 54  1  0  0  0  0
 12 13  1  0  0  0  0
 12 34  1  0  0  0  0
 13 14  2  0  0  0  0
 13 55  1  0  0  0  0
 14 15  1  0  0  0  0
 15 16  1  0  0  0  0
 15 33  2  0  0  0  0
 16 17  1  0  0  0  0
 16 30  1  0  0  0  0
 17 18  1  0  0  0  0
 17 56  1  0  0  0  0
 17 57  1  0  0  0  0
 18 19  1  0  0  0  0
 18 58  1  0  0  0  0
 18 59  1  0  0  0  0
 19 20  1  0  0  0  0
 19 60  1  0  0  0  0
 19 61  1  0  0  0  0
 20 21  1  0  0  0  0
 20 62  1  0  0  0  0
 20 63  1  0  0  0  0
 21 22  1  0  0  0  0
 21 64  1  0  0  0  0
 21 65  1  0  0  0  0
 22 23  1  0  0  0  0
 23 24  1  0  0  0  0
 23 66  1  0  0  0  0
 23 67  1  0  0  0  0
 24 25  1  0  0  0  0
 24 29  2  0  0  0  0
 25 26  2  0  0  0  0
 25 68  1  0  0  0  0
 26 27  1  0  0  0  0
 26 69  1  0  0  0  0
 27 28  2  0  0  0  0
 27 70  1  0  0  0  0
 28 29  1  0  0  0  0
 28 71  1  0  0  0  0
 29 72  1  0  0  0  0
 30 31  1  0  0  0  0
 30 32  2  0  0  0  0
 31 73  1  0  0  0  0
 31 74  1  0  0  0  0
 31 75  1  0  0  0  0
 33 34  1  0  0  0  0
 33 76  1  0  0  0  0
 34 35  2  0  0  0  0
 35 36  1  0  0  0  0
 36 37  1  0  0  0  0
 37 38  1  0  0  0  0
 37 77  1  0  0  0  0
 38 39  2  0  0  0  0
 38 40  1  0  0  0  0
 40 41  1  0  0  0  0
 40 78  1  0  0  0  0
 41 42  1  0  0  0  0
 41 43  1  0  0  0  0
 41 44  1  0  0  0  0
 42 79  1  0  0  0  0
 42 80  1  0  0  0  0
 42 81  1  0  0  0  0
 43 82  1  0  0  0  0
 43 83  1  0  0  0  0
 43 84  1  0  0  0  0
 44 85  1  0  0  0  0
 44 86  1  0  0  0  0
 44 87  1  0  0  0  0
 45 88  1  0  0  0  0
M  END
$$$$
