CHEMBL3951714
 OpenBabel04072215373D

 78 83  0  0  0  0  0  0  0  0999 V2000
    1.0307    0.0952   -0.7450 C   0  0  0  0  0  0  0  0  0  0  0  0
    2.2874   -0.1570   -0.1014 O   0  0  0  0  0  0  0  0  0  0  0  0
    3.2580   -0.7145   -0.9095 C   0  0  0  0  0  0  0  0  0  0  0  0
    3.3275   -0.4274   -2.2707 C   0  0  0  0  0  0  0  0  0  0  0  0
    4.2602   -1.0825   -3.0486 C   0  0  0  0  0  0  0  0  0  0  0  0
    4.4724   -0.8291   -4.3793 O   0  0  0  0  0  0  0  0  0  0  0  0
    4.1448    0.4925   -4.8173 C   0  0  0  0  0  0  0  0  0  0  0  0
    5.0497   -2.0875   -2.4680 C   0  0  0  0  0  0  0  0  0  0  0  0
    5.1383   -2.3160   -1.0645 C   0  0  0  0  0  0  0  0  0  0  0  0
    6.1439   -3.2725   -0.5396 N   0  0  0  0  0  0  0  0  0  0  0  0
    6.5871   -2.9880    0.8611 C   0  0  0  0  0  0  0  0  0  0  0  0
    5.7119   -3.4705    2.0042 C   0  0  0  0  0  0  0  0  0  0  0  0
    5.4659   -4.9464    2.2247 C   0  0  0  0  0  0  0  0  0  0  0  0
    4.3164   -4.0428    1.8934 C   0  0  0  0  0  0  0  0  0  0  0  0
    7.3398   -3.5404   -1.3433 C   0  0  0  0  0  0  0  0  0  0  0  0
    7.8790   -2.4520   -2.0354 C   0  0  0  0  0  0  0  0  0  0  0  0
    8.4134   -2.6758   -3.2869 C   0  0  0  0  0  0  0  0  0  0  0  0
    8.6733   -3.9509   -3.7511 C   0  0  0  0  0  0  0  0  0  0  0  0
    8.9392   -4.0305   -5.0599 N   0  0  0  0  0  0  0  0  0  0  0  0
    9.5395   -5.1496   -5.4741 C   0  0  0  0  0  0  0  0  0  0  0  0
    9.9840   -6.0996   -4.5792 C   0  0  0  0  0  0  0  0  0  0  0  0
   11.2695   -6.7079   -4.9551 C   0  0  0  0  0  0  0  0  0  0  0  0
   11.6710   -8.0006   -5.3500 C   0  0  0  0  0  0  0  0  0  0  0  0
   12.9398   -8.0481   -5.7933 N   0  0  0  0  0  0  0  0  0  0  0  0
   13.3779   -6.7666   -5.6963 N   0  0  0  0  0  0  0  0  0  0  0  0
   14.8196   -6.4925   -5.7763 C   0  0  0  0  0  0  0  0  0  0  0  0
   15.2425   -5.1951   -6.4600 C   0  0  0  0  0  0  0  0  0  0  0  0
   14.6449   -4.1299   -6.3245 O   0  0  0  0  0  0  0  0  0  0  0  0
   16.4056   -5.2784   -7.2170 N   0  0  0  0  0  0  0  0  0  0  0  0
   16.8876   -4.1683   -8.0342 C   0  0  0  0  0  0  0  0  0  0  0  0
   17.5853   -3.0009   -7.2908 C   0  0  0  0  0  0  0  0  0  0  0  0
   18.8471   -3.2837   -6.5643 N   0  0  0  0  0  0  0  0  0  0  0  0
   19.3328   -2.0429   -5.9165 C   0  0  0  0  0  0  0  0  0  0  0  0
   20.2479   -1.3938   -6.9391 C   0  0  0  0  0  0  0  0  0  0  0  0
   20.9889   -2.5932   -7.4839 C   0  0  0  0  0  0  0  0  0  0  0  0
   19.9569   -3.7205   -7.4364 C   0  0  0  0  0  0  0  0  0  0  0  0
   12.3744   -5.9277   -5.2925 C   0  0  0  0  0  0  0  0  0  0  0  0
    9.4818   -6.1280   -3.2898 N   0  0  0  0  0  0  0  0  0  0  0  0
    8.6946   -5.0331   -2.8670 C   0  0  0  0  0  0  0  0  0  0  0  0
    7.8757   -4.8228   -1.6835 C   0  0  0  0  0  0  0  0  0  0  0  0
    4.2104   -1.5773   -0.2991 C   0  0  0  0  0  0  0  0  0  0  0  0
    0.2919    0.3128    0.0230 H   0  0  0  0  0  0  0  0  0  0  0  0
    0.6917   -0.7964   -1.3069 H   0  0  0  0  0  0  0  0  0  0  0  0
    1.0949    0.9687   -1.4126 H   0  0  0  0  0  0  0  0  0  0  0  0
    2.6507    0.2835   -2.7263 H   0  0  0  0  0  0  0  0  0  0  0  0
    4.6306    0.6641   -5.7834 H   0  0  0  0  0  0  0  0  0  0  0  0
    4.5110    1.2626   -4.1267 H   0  0  0  0  0  0  0  0  0  0  0  0
    3.0646    0.5905   -4.9667 H   0  0  0  0  0  0  0  0  0  0  0  0
    5.6620   -2.6576   -3.1592 H   0  0  0  0  0  0  0  0  0  0  0  0
    6.7576   -1.9095    0.9866 H   0  0  0  0  0  0  0  0  0  0  0  0
    7.5653   -3.4543    1.0498 H   0  0  0  0  0  0  0  0  0  0  0  0
    5.9427   -2.9034    2.9051 H   0  0  0  0  0  0  0  0  0  0  0  0
    5.5128   -5.3323    3.2389 H   0  0  0  0  0  0  0  0  0  0  0  0
    5.7863   -5.6475    1.4645 H   0  0  0  0  0  0  0  0  0  0  0  0
    3.6122   -3.8010    2.6846 H   0  0  0  0  0  0  0  0  0  0  0  0
    3.8564   -4.1485    0.9197 H   0  0  0  0  0  0  0  0  0  0  0  0
    7.6377   -1.4335   -1.7553 H   0  0  0  0  0  0  0  0  0  0  0  0
    8.5447   -1.8372   -3.9634 H   0  0  0  0  0  0  0  0  0  0  0  0
    9.8054   -5.1713   -6.5255 H   0  0  0  0  0  0  0  0  0  0  0  0
   11.0886   -8.9135   -5.3675 H   0  0  0  0  0  0  0  0  0  0  0  0
   15.2836   -7.3480   -6.2806 H   0  0  0  0  0  0  0  0  0  0  0  0
   15.1734   -6.4669   -4.7401 H   0  0  0  0  0  0  0  0  0  0  0  0
   16.8878   -6.1628   -7.3138 H   0  0  0  0  0  0  0  0  0  0  0  0
   16.0170   -3.7544   -8.5584 H   0  0  0  0  0  0  0  0  0  0  0  0
   17.5448   -4.5892   -8.8019 H   0  0  0  0  0  0  0  0  0  0  0  0
   16.8657   -2.6018   -6.5655 H   0  0  0  0  0  0  0  0  0  0  0  0
   17.7569   -2.2062   -8.0292 H   0  0  0  0  0  0  0  0  0  0  0  0
   19.9142   -2.3155   -5.0257 H   0  0  0  0  0  0  0  0  0  0  0  0
   18.5347   -1.3697   -5.5838 H   0  0  0  0  0  0  0  0  0  0  0  0
   20.9195   -0.6476   -6.5025 H   0  0  0  0  0  0  0  0  0  0  0  0
   19.6725   -0.9080   -7.7361 H   0  0  0  0  0  0  0  0  0  0  0  0
   21.8361   -2.8292   -6.8271 H   0  0  0  0  0  0  0  0  0  0  0  0
   21.3802   -2.4186   -8.4906 H   0  0  0  0  0  0  0  0  0  0  0  0
   20.4204   -4.6170   -7.0083 H   0  0  0  0  0  0  0  0  0  0  0  0
   19.6369   -3.9779   -8.4500 H   0  0  0  0  0  0  0  0  0  0  0  0
   12.5215   -4.8552   -5.2674 H   0  0  0  0  0  0  0  0  0  0  0  0
    7.6267   -5.6934   -1.0660 H   0  0  0  0  0  0  0  0  0  0  0  0
    4.1674   -1.6583    0.7813 H   0  0  0  0  0  0  0  0  0  0  0  0
  1  2  1  0  0  0  0
  1 42  1  0  0  0  0
  1 43  1  0  0  0  0
  1 44  1  0  0  0  0
  2  3  1  0  0  0  0
  3  4  1  0  0  0  0
  3 41  2  0  0  0  0
  4  5  2  0  0  0  0
  4 45  1  0  0  0  0
  5  6  1  0  0  0  0
  5  8  1  0  0  0  0
  6  7  1  0  0  0  0
  7 46  1  0  0  0  0
  7 47  1  0  0  0  0
  7 48  1  0  0  0  0
  8  9  2  0  0  0  0
  8 49  1  0  0  0  0
  9 10  1  0  0  0  0
  9 41  1  0  0  0  0
 10 11  1  0  0  0  0
 10 15  1  0  0  0  0
 11 12  1  0  0  0  0
 11 50  1  0  0  0  0
 11 51  1  0  0  0  0
 12 13  1  0  0  0  0
 12 14  1  0  0  0  0
 12 52  1  0  0  0  0
 13 14  1  0  0  0  0
 13 53  1  0  0  0  0
 13 54  1  0  0  0  0
 14 55  1  0  0  0  0
 14 56  1  0  0  0  0
 15 16  1  0  0  0  0
 15 40  2  0  0  0  0
 16 17  2  0  0  0  0
 16 57  1  0  0  0  0
 17 18  1  0  0  0  0
 17 58  1  0  0  0  0
 18 19  1  0  0  0  0
 18 39  2  0  0  0  0
 19 20  2  0  0  0  0
 20 21  1  0  0  0  0
 20 59  1  0  0  0  0
 21 22  1  0  0  0  0
 21 38  2  0  0  0  0
 22 23  1  0  0  0  0
 22 37  2  0  0  0  0
 23 24  2  0  0  0  0
 23 60  1  0  0  0  0
 24 25  1  0  0  0  0
 25 26  1  0  0  0  0
 25 37  1  0  0  0  0
 26 27  1  0  0  0  0
 26 61  1  0  0  0  0
 26 62  1  0  0  0  0
 27 28  2  0  0  0  0
 27 29  1  0  0  0  0
 29 30  1  0  0  0  0
 29 63  1  0  0  0  0
 30 31  1  0  0  0  0
 30 64  1  0  0  0  0
 30 65  1  0  0  0  0
 31 32  1  0  0  0  0
 31 66  1  0  0  0  0
 31 67  1  0  0  0  0
 32 33  1  0  0  0  0
 32 36  1  0  0  0  0
 33 34  1  0  0  0  0
 33 68  1  0  0  0  0
 33 69  1  0  0  0  0
 34 35  1  0  0  0  0
 34 70  1  0  0  0  0
 34 71  1  0  0  0  0
 35 36  1  0  0  0  0
 35 72  1  0  0  0  0
 35 73  1  0  0  0  0
 36 74  1  0  0  0  0
 36 75  1  0  0  0  0
 37 76  1  0  0  0  0
 38 39  1  0  0  0  0
 39 40  1  0  0  0  0
 40 77  1  0  0  0  0
 41 78  1  0  0  0  0
M  END
$$$$
