CHEMBL4530342
 OpenBabel04072215383D

 62 66  0  0  0  0  0  0  0  0999 V2000
   13.3863    5.9123    1.4873 C   0  0  0  0  0  0  0  0  0  0  0  0
   14.5144    5.4098    0.5948 C   0  0  0  0  0  0  0  0  0  0  0  0
   15.1641    4.1393    1.1325 C   0  0  0  0  0  0  0  0  0  0  0  0
   14.1583    3.0261    1.2983 C   0  0  0  0  0  0  0  0  0  0  0  0
   13.8785    2.5942    2.4138 O   0  0  0  0  0  0  0  0  0  0  0  0
   13.6169    2.5788    0.1095 N   0  0  0  0  0  0  0  0  0  0  0  0
   12.6846    1.5418    0.1106 C   0  0  0  0  0  0  0  0  0  0  0  0
   11.5782    1.6131    0.9408 C   0  0  0  0  0  0  0  0  0  0  0  0
   10.6479    0.5824    0.9013 C   0  0  0  0  0  0  0  0  0  0  0  0
    9.4635    0.5989    1.6057 O   0  0  0  0  0  0  0  0  0  0  0  0
    8.8310    1.8094    1.8105 C   0  0  0  0  0  0  0  0  0  0  0  0
    8.8377    2.8506    0.8790 C   0  0  0  0  0  0  0  0  0  0  0  0
    8.2376    4.0707    1.1941 C   0  0  0  0  0  0  0  0  0  0  0  0
    7.5222    4.2346    2.3940 C   0  0  0  0  0  0  0  0  0  0  0  0
    6.8607    5.4362    2.6281 N   0  0  0  0  0  0  0  0  0  0  0  0
    5.9966    5.8948    3.6229 C   0  0  0  0  0  0  0  0  0  0  0  0
    6.4841    7.0570    4.1617 N   0  0  0  0  0  0  0  0  0  0  0  0
    5.6403    7.9941    4.6627 C   0  0  0  0  0  0  0  0  0  0  0  0
    4.2958    7.9002    4.4949 C   0  0  0  0  0  0  0  0  0  0  0  0
    3.8296    6.7295    3.9506 C   0  0  0  0  0  0  0  0  0  0  0  0
    2.4349    6.5780    3.9460 N   0  0  0  0  0  0  0  0  0  0  0  0
    2.1584    5.5804    4.8464 C   0  0  0  0  0  0  0  0  0  0  0  0
    2.4223    4.2986    4.5331 C   0  0  0  0  0  0  0  0  0  0  0  0
    1.0231    3.7057    4.4885 C   0  0  0  0  0  0  0  0  0  0  0  0
    0.2958    3.8421    3.2858 C   0  0  0  0  0  0  0  0  0  0  0  0
   -1.1024    4.0509    3.2709 C   0  0  0  0  0  0  0  0  0  0  0  0
   -1.8337    4.0741    4.4543 C   0  0  0  0  0  0  0  0  0  0  0  0
   -3.1342    4.3636    4.4307 F   0  0  0  0  0  0  0  0  0  0  0  0
   -1.1821    3.8513    5.6620 C   0  0  0  0  0  0  0  0  0  0  0  0
    0.2175    3.6561    5.6772 C   0  0  0  0  0  0  0  0  0  0  0  0
    3.7407    4.2797    3.6033 C   0  0  0  0  0  0  0  0  0  0  0  0
    4.0341    3.2952    2.9279 O   0  0  0  0  0  0  0  0  0  0  0  0
    4.6246    5.6048    3.6626 C   0  0  0  0  0  0  0  0  0  0  0  0
    7.4939    3.1827    3.3019 C   0  0  0  0  0  0  0  0  0  0  0  0
    8.1383    1.9821    3.0092 C   0  0  0  0  0  0  0  0  0  0  0  0
    8.0888    0.9964    3.9140 F   0  0  0  0  0  0  0  0  0  0  0  0
   10.9310   -0.5475    0.1464 C   0  0  0  0  0  0  0  0  0  0  0  0
   12.0695   -0.5301   -0.6446 C   0  0  0  0  0  0  0  0  0  0  0  0
   12.9131    0.5234   -0.7367 N   0  0  0  0  0  0  0  0  0  0  0  0
   12.9431    6.8164    1.0597 H   0  0  0  0  0  0  0  0  0  0  0  0
   13.7559    6.1513    2.4895 H   0  0  0  0  0  0  0  0  0  0  0  0
   12.5876    5.1699    1.5863 H   0  0  0  0  0  0  0  0  0  0  0  0
   15.2793    6.1897    0.5112 H   0  0  0  0  0  0  0  0  0  0  0  0
   14.1225    5.2348   -0.4134 H   0  0  0  0  0  0  0  0  0  0  0  0
   15.6214    4.3312    2.1104 H   0  0  0  0  0  0  0  0  0  0  0  0
   15.9622    3.7994    0.4633 H   0  0  0  0  0  0  0  0  0  0  0  0
   14.1947    2.6222   -0.7174 H   0  0  0  0  0  0  0  0  0  0  0  0
   11.4281    2.4867    1.5653 H   0  0  0  0  0  0  0  0  0  0  0  0
    9.3334    2.7437   -0.0824 H   0  0  0  0  0  0  0  0  0  0  0  0
    8.3410    4.8938    0.4885 H   0  0  0  0  0  0  0  0  0  0  0  0
    7.0093    6.1583    1.9320 H   0  0  0  0  0  0  0  0  0  0  0  0
    6.0793    8.8216    5.2060 H   0  0  0  0  0  0  0  0  0  0  0  0
    3.6084    8.6501    4.8607 H   0  0  0  0  0  0  0  0  0  0  0  0
    2.2260    6.1711    3.0179 H   0  0  0  0  0  0  0  0  0  0  0  0
    1.3463    5.9309    5.4967 H   0  0  0  0  0  0  0  0  0  0  0  0
    0.8393    3.9272    2.3514 H   0  0  0  0  0  0  0  0  0  0  0  0
   -1.6249    4.2695    2.3413 H   0  0  0  0  0  0  0  0  0  0  0  0
   -1.7591    3.9304    6.5833 H   0  0  0  0  0  0  0  0  0  0  0  0
    0.6970    3.6543    6.6548 H   0  0  0  0  0  0  0  0  0  0  0  0
    6.9875    3.2910    4.2532 H   0  0  0  0  0  0  0  0  0  0  0  0
   10.2808   -1.4141    0.1655 H   0  0  0  0  0  0  0  0  0  0  0  0
   12.3493   -1.3960   -1.2385 H   0  0  0  0  0  0  0  0  0  0  0  0
  1  2  1  0  0  0  0
  1 40  1  0  0  0  0
  1 41  1  0  0  0  0
  1 42  1  0  0  0  0
  2  3  1  0  0  0  0
  2 43  1  0  0  0  0
  2 44  1  0  0  0  0
  3  4  1  0  0  0  0
  3 45  1  0  0  0  0
  3 46  1  0  0  0  0
  4  5  2  0  0  0  0
  4  6  1  0  0  0  0
  6  7  1  0  0  0  0
  6 47  1  0  0  0  0
  7  8  1  0  0  0  0
  7 39  2  0  0  0  0
  8  9  2  0  0  0  0
  8 48  1  0  0  0  0
  9 10  1  0  0  0  0
  9 37  1  0  0  0  0
 10 11  1  0  0  0  0
 11 12  1  0  0  0  0
 11 35  2  0  0  0  0
 12 13  2  0  0  0  0
 12 49  1  0  0  0  0
 13 14  1  0  0  0  0
 13 50  1  0  0  0  0
 14 15  1  0  0  0  0
 14 34  2  0  0  0  0
 15 16  1  0  0  0  0
 15 51  1  0  0  0  0
 16 17  1  0  0  0  0
 16 33  2  0  0  0  0
 17 18  2  0  0  0  0
 18 19  1  0  0  0  0
 18 52  1  0  0  0  0
 19 20  2  0  0  0  0
 19 53  1  0  0  0  0
 20 21  1  0  0  0  0
 20 33  1  0  0  0  0
 21 22  1  0  0  0  0
 21 54  1  0  0  0  0
 22 23  2  0  0  0  0
 22 55  1  0  0  0  0
 23 24  1  0  0  0  0
 23 31  1  0  0  0  0
 24 25  1  0  0  0  0
 24 30  2  0  0  0  0
 25 26  2  0  0  0  0
 25 56  1  0  0  0  0
 26 27  1  0  0  0  0
 26 57  1  0  0  0  0
 27 28  1  0  0  0  0
 27 29  2  0  0  0  0
 29 30  1  0  0  0  0
 29 58  1  0  0  0  0
 30 59  1  0  0  0  0
 31 32  2  0  0  0  0
 31 33  1  0  0  0  0
 34 35  1  0  0  0  0
 34 60  1  0  0  0  0
 35 36  1  0  0  0  0
 37 38  2  0  0  0  0
 37 61  1  0  0  0  0
 38 39  1  0  0  0  0
 38 62  1  0  0  0  0
M  END
$$$$
