CHEMBL2047243
 OpenBabel04072215363D

 35 38  0  0  0  0  0  0  0  0999 V2000
    1.2429    0.1900   -0.1610 N   0  0  0  0  0  0  0  0  0  0  0  0
    2.6207    0.1614   -0.1092 C   0  0  0  0  0  0  0  0  0  0  0  0
    3.2638    1.3262   -0.0197 N   0  0  0  0  0  0  0  0  0  0  0  0
    4.5990    1.2091    0.0228 C   0  0  0  0  0  0  0  0  0  0  0  0
    5.3112    0.0118    0.0048 C   0  0  0  0  0  0  0  0  0  0  0  0
    4.5529   -1.1297   -0.0768 C   0  0  0  0  0  0  0  0  0  0  0  0
    5.1580   -2.4066   -0.1194 N   0  0  0  0  0  0  0  0  0  0  0  0
    4.5537   -3.5680   -0.6497 C   0  0  0  0  0  0  0  0  0  0  0  0
    3.7228   -3.5004   -1.7800 C   0  0  0  0  0  0  0  0  0  0  0  0
    3.1338   -4.6448   -2.3165 C   0  0  0  0  0  0  0  0  0  0  0  0
    3.3880   -5.8871   -1.7439 C   0  0  0  0  0  0  0  0  0  0  0  0
    4.2469   -5.9816   -0.6492 C   0  0  0  0  0  0  0  0  0  0  0  0
    4.8368   -4.8299   -0.1146 C   0  0  0  0  0  0  0  0  0  0  0  0
    3.2019   -1.0450   -0.1179 N   0  0  0  0  0  0  0  0  0  0  0  0
    6.7315    0.3038    0.0184 C   0  0  0  0  0  0  0  0  0  0  0  0
    7.8436   -0.5214   -0.0212 C   0  0  0  0  0  0  0  0  0  0  0  0
    9.1144    0.0663   -0.0133 C   0  0  0  0  0  0  0  0  0  0  0  0
    9.2661    1.4626    0.0238 C   0  0  0  0  0  0  0  0  0  0  0  0
    8.1506    2.2988    0.0510 C   0  0  0  0  0  0  0  0  0  0  0  0
    6.8978    1.7079    0.0483 C   0  0  0  0  0  0  0  0  0  0  0  0
    5.5493    2.3952    0.0506 C   0  0  0  0  0  0  0  0  0  0  0  0
    0.8980    1.0370    0.2660 H   0  0  0  0  0  0  0  0  0  0  0  0
    0.8766   -0.6894    0.1767 H   0  0  0  0  0  0  0  0  0  0  0  0
    5.6575   -2.5759    0.7459 H   0  0  0  0  0  0  0  0  0  0  0  0
    3.5200   -2.5408   -2.2503 H   0  0  0  0  0  0  0  0  0  0  0  0
    2.4779   -4.5575   -3.1775 H   0  0  0  0  0  0  0  0  0  0  0  0
    2.9211   -6.7770   -2.1541 H   0  0  0  0  0  0  0  0  0  0  0  0
    4.4538   -6.9528   -0.2090 H   0  0  0  0  0  0  0  0  0  0  0  0
    5.5029   -4.9324    0.7372 H   0  0  0  0  0  0  0  0  0  0  0  0
    7.7535   -1.6009   -0.0744 H   0  0  0  0  0  0  0  0  0  0  0  0
    9.9995   -0.5655   -0.0462 H   0  0  0  0  0  0  0  0  0  0  0  0
   10.2645    1.8947    0.0219 H   0  0  0  0  0  0  0  0  0  0  0  0
    8.2657    3.3778    0.0654 H   0  0  0  0  0  0  0  0  0  0  0  0
    5.4192    3.0042   -0.8487 H   0  0  0  0  0  0  0  0  0  0  0  0
    5.4052    2.9828    0.9609 H   0  0  0  0  0  0  0  0  0  0  0  0
  1  2  1  0  0  0  0
  1 22  1  0  0  0  0
  1 23  1  0  0  0  0
  2  3  1  0  0  0  0
  2 14  2  0  0  0  0
  3  4  2  0  0  0  0
  4  5  1  0  0  0  0
  4 21  1  0  0  0  0
  5  6  2  0  0  0  0
  5 15  1  0  0  0  0
  6  7  1  0  0  0  0
  6 14  1  0  0  0  0
  7  8  1  0  0  0  0
  7 24  1  0  0  0  0
  8  9  1  0  0  0  0
  8 13  2  0  0  0  0
  9 10  2  0  0  0  0
  9 25  1  0  0  0  0
 10 11  1  0  0  0  0
 10 26  1  0  0  0  0
 11 12  2  0  0  0  0
 11 27  1  0  0  0  0
 12 13  1  0  0  0  0
 12 28  1  0  0  0  0
 13 29  1  0  0  0  0
 15 16  1  0  0  0  0
 15 20  2  0  0  0  0
 16 17  2  0  0  0  0
 16 30  1  0  0  0  0
 17 18  1  0  0  0  0
 17 31  1  0  0  0  0
 18 19  2  0  0  0  0
 18 32  1  0  0  0  0
 19 20  1  0  0  0  0
 19 33  1  0  0  0  0
 20 21  1  0  0  0  0
 21 34  1  0  0  0  0
 21 35  1  0  0  0  0
M  END
$$$$
