CHEMBL4475766
 OpenBabel04072215383D

 40 43  0  0  0  0  0  0  0  0999 V2000
    1.8216    1.3866   -0.3919 N   0  0  0  0  0  0  0  0  0  0  0  0
    2.4635    0.1933   -0.2392 C   0  0  0  0  0  0  0  0  0  0  0  0
    2.4606   -0.3436    0.8681 O   0  0  0  0  0  0  0  0  0  0  0  0
    3.1754   -0.3448   -1.3862 C   0  0  0  0  0  0  0  0  0  0  0  0
    3.0126   -0.1726   -2.8042 C   0  0  0  0  0  0  0  0  0  0  0  0
    2.0515    0.6222   -3.5913 C   0  0  0  0  0  0  0  0  0  0  0  0
    0.7500    0.8832   -3.1549 C   0  0  0  0  0  0  0  0  0  0  0  0
   -0.1103    1.7323   -3.8673 C   0  0  0  0  0  0  0  0  0  0  0  0
    0.3197    2.2233   -5.1085 C   0  0  0  0  0  0  0  0  0  0  0  0
   -0.5184    3.2206   -6.2371 S   0  0  0  0  0  0  0  0  0  0  0  0
    0.7975    3.0784   -7.3229 C   0  0  0  0  0  0  0  0  0  0  0  0
    1.8441    2.4164   -6.8874 N   0  0  0  0  0  0  0  0  0  0  0  0
    1.5796    1.9147   -5.6229 C   0  0  0  0  0  0  0  0  0  0  0  0
    2.4542    1.1343   -4.8410 C   0  0  0  0  0  0  0  0  0  0  0  0
    3.9552   -0.8563   -3.4727 N   0  0  0  0  0  0  0  0  0  0  0  0
    4.7453   -1.4001   -2.5295 N   0  0  0  0  0  0  0  0  0  0  0  0
    4.2626   -1.2063   -1.2636 C   0  0  0  0  0  0  0  0  0  0  0  0
    4.8774   -1.6810   -0.1353 N   0  0  0  0  0  0  0  0  0  0  0  0
    4.7686   -3.1083    0.1829 C   0  0  0  0  0  0  0  0  0  0  0  0
    5.2685   -4.0529   -0.9023 C   0  0  0  0  0  0  0  0  0  0  0  0
    6.7143   -3.8205   -1.3390 C   0  0  0  0  0  0  0  0  0  0  0  0
    7.0170   -2.4560   -1.9609 C   0  0  0  0  0  0  0  0  0  0  0  0
    5.9902   -1.9920   -2.9929 C   0  0  0  0  0  0  0  0  0  0  0  0
    1.3969    1.7832    0.4346 H   0  0  0  0  0  0  0  0  0  0  0  0
    1.9638    1.9813   -1.1953 H   0  0  0  0  0  0  0  0  0  0  0  0
    0.3695    0.4324   -2.2403 H   0  0  0  0  0  0  0  0  0  0  0  0
   -1.0962    1.9753   -3.4823 H   0  0  0  0  0  0  0  0  0  0  0  0
    0.7652    3.5172   -8.3116 H   0  0  0  0  0  0  0  0  0  0  0  0
    3.4432    0.9179   -5.2371 H   0  0  0  0  0  0  0  0  0  0  0  0
    4.5684   -1.1798    0.7058 H   0  0  0  0  0  0  0  0  0  0  0  0
    3.7246   -3.3460    0.4205 H   0  0  0  0  0  0  0  0  0  0  0  0
    5.3441   -3.2878    1.1004 H   0  0  0  0  0  0  0  0  0  0  0  0
    4.6011   -4.0287   -1.7706 H   0  0  0  0  0  0  0  0  0  0  0  0
    5.1968   -5.0789   -0.5146 H   0  0  0  0  0  0  0  0  0  0  0  0
    6.9711   -4.5965   -2.0703 H   0  0  0  0  0  0  0  0  0  0  0  0
    7.3853   -3.9791   -0.4847 H   0  0  0  0  0  0  0  0  0  0  0  0
    7.9888   -2.5428   -2.4654 H   0  0  0  0  0  0  0  0  0  0  0  0
    7.1656   -1.6969   -1.1854 H   0  0  0  0  0  0  0  0  0  0  0  0
    5.7178   -2.8176   -3.6619 H   0  0  0  0  0  0  0  0  0  0  0  0
    6.4636   -1.2162   -3.6098 H   0  0  0  0  0  0  0  0  0  0  0  0
  1  2  1  0  0  0  0
  1 24  1  0  0  0  0
  1 25  1  0  0  0  0
  2  3  2  0  0  0  0
  2  4  1  0  0  0  0
  4  5  1  0  0  0  0
  4 17  2  0  0  0  0
  5  6  1  0  0  0  0
  5 15  2  0  0  0  0
  6  7  1  0  0  0  0
  6 14  2  0  0  0  0
  7  8  2  0  0  0  0
  7 26  1  0  0  0  0
  8  9  1  0  0  0  0
  8 27  1  0  0  0  0
  9 10  1  0  0  0  0
  9 13  2  0  0  0  0
 10 11  1  0  0  0  0
 11 12  2  0  0  0  0
 11 28  1  0  0  0  0
 12 13  1  0  0  0  0
 13 14  1  0  0  0  0
 14 29  1  0  0  0  0
 15 16  1  0  0  0  0
 16 17  1  0  0  0  0
 16 23  1  0  0  0  0
 17 18  1  0  0  0  0
 18 19  1  0  0  0  0
 18 30  1  0  0  0  0
 19 20  1  0  0  0  0
 19 31  1  0  0  0  0
 19 32  1  0  0  0  0
 20 21  1  0  0  0  0
 20 33  1  0  0  0  0
 20 34  1  0  0  0  0
 21 22  1  0  0  0  0
 21 35  1  0  0  0  0
 21 36  1  0  0  0  0
 22 23  1  0  0  0  0
 22 37  1  0  0  0  0
 22 38  1  0  0  0  0
 23 39  1  0  0  0  0
 23 40  1  0  0  0  0
M  END
$$$$
