CHEMBL2086747
 OpenBabel04072215363D

 56 60  0  0  0  0  0  0  0  0999 V2000
    1.0896   -1.7146   -0.1592 C   0  0  0  0  0  0  0  0  0  0  0  0
    2.4230   -1.4780   -0.5925 O   0  0  0  0  0  0  0  0  0  0  0  0
    2.6478   -1.9528   -1.9215 C   0  0  0  0  0  0  0  0  0  0  0  0
    4.0812   -1.6310   -2.3708 C   0  0  0  0  0  0  0  0  0  0  0  0
    5.0709   -2.2893   -1.4933 N   0  0  0  0  0  0  0  0  0  0  0  0
    6.7045   -2.0557   -1.8400 S   0  0  0  0  0  0  0  0  0  0  0  0
    6.8582   -0.7987   -2.5306 O   0  0  0  0  0  0  0  0  0  0  0  0
    7.4501   -2.3821   -0.6416 O   0  0  0  0  0  0  0  0  0  0  0  0
    7.0399   -3.3751   -2.9920 C   0  0  0  0  0  0  0  0  0  0  0  0
    6.8947   -4.6995   -2.5294 C   0  0  0  0  0  0  0  0  0  0  0  0
    7.1528   -5.7652   -3.3849 C   0  0  0  0  0  0  0  0  0  0  0  0
    7.5811   -5.4632   -4.6647 C   0  0  0  0  0  0  0  0  0  0  0  0
    7.7859   -4.1557   -5.1336 C   0  0  0  0  0  0  0  0  0  0  0  0
    7.4948   -3.0895   -4.2925 C   0  0  0  0  0  0  0  0  0  0  0  0
    8.3050   -4.2960   -6.5211 C   0  0  0  0  0  0  0  0  0  0  0  0
    8.7790   -3.3693   -7.3901 C   0  0  0  0  0  0  0  0  0  0  0  0
    8.9379   -1.9566   -6.9823 C   0  0  0  0  0  0  0  0  0  0  0  0
   10.1302   -1.5548   -6.3593 C   0  0  0  0  0  0  0  0  0  0  0  0
   10.3484   -0.2128   -6.0561 C   0  0  0  0  0  0  0  0  0  0  0  0
    9.3723    0.7329   -6.3588 C   0  0  0  0  0  0  0  0  0  0  0  0
    8.1780    0.3391   -6.9660 C   0  0  0  0  0  0  0  0  0  0  0  0
    7.9609   -1.0024   -7.2850 C   0  0  0  0  0  0  0  0  0  0  0  0
    9.2636   -3.7605   -8.6785 C   0  0  0  0  0  0  0  0  0  0  0  0
    8.6709   -3.8768   -9.8541 N   0  0  0  0  0  0  0  0  0  0  0  0
    9.6571   -4.3013  -10.7253 C   0  0  0  0  0  0  0  0  0  0  0  0
    9.5941   -4.6337  -12.0875 C   0  0  0  0  0  0  0  0  0  0  0  0
   10.7572   -5.0914  -12.7268 C   0  0  0  0  0  0  0  0  0  0  0  0
   11.9664   -5.1933  -12.0331 C   0  0  0  0  0  0  0  0  0  0  0  0
   12.0591   -4.8290  -10.6872 C   0  0  0  0  0  0  0  0  0  0  0  0
   10.8816   -4.3968  -10.0750 C   0  0  0  0  0  0  0  0  0  0  0  0
   10.6105   -3.9967   -8.7976 N   0  0  0  0  0  0  0  0  0  0  0  0
    8.3339   -5.7898   -6.8035 C   0  0  0  0  0  0  0  0  0  0  0  0
    8.7410   -6.3892   -7.7772 O   0  0  0  0  0  0  0  0  0  0  0  0
    7.8835   -6.3937   -5.6437 N   0  0  0  0  0  0  0  0  0  0  0  0
    0.9879   -1.3460    0.8654 H   0  0  0  0  0  0  0  0  0  0  0  0
    0.8667   -2.7859   -0.1679 H   0  0  0  0  0  0  0  0  0  0  0  0
    0.3792   -1.1769   -0.7946 H   0  0  0  0  0  0  0  0  0  0  0  0
    1.9424   -1.4616   -2.6015 H   0  0  0  0  0  0  0  0  0  0  0  0
    2.4754   -3.0348   -1.9509 H   0  0  0  0  0  0  0  0  0  0  0  0
    4.2344   -0.5481   -2.3142 H   0  0  0  0  0  0  0  0  0  0  0  0
    4.2180   -1.9707   -3.4019 H   0  0  0  0  0  0  0  0  0  0  0  0
    4.8394   -3.2356   -1.2011 H   0  0  0  0  0  0  0  0  0  0  0  0
    6.6006   -4.8969   -1.5003 H   0  0  0  0  0  0  0  0  0  0  0  0
    7.0421   -6.7903   -3.0475 H   0  0  0  0  0  0  0  0  0  0  0  0
    7.6258   -2.0591   -4.6044 H   0  0  0  0  0  0  0  0  0  0  0  0
   10.9050   -2.2798   -6.1241 H   0  0  0  0  0  0  0  0  0  0  0  0
   11.2818    0.0964   -5.5932 H   0  0  0  0  0  0  0  0  0  0  0  0
    9.5449    1.7816   -6.1308 H   0  0  0  0  0  0  0  0  0  0  0  0
    7.4214    1.0832   -7.2042 H   0  0  0  0  0  0  0  0  0  0  0  0
    7.0400   -1.2950   -7.7842 H   0  0  0  0  0  0  0  0  0  0  0  0
    8.6566   -4.5568  -12.6269 H   0  0  0  0  0  0  0  0  0  0  0  0
   10.7167   -5.3803  -13.7752 H   0  0  0  0  0  0  0  0  0  0  0  0
   12.8509   -5.5681  -12.5444 H   0  0  0  0  0  0  0  0  0  0  0  0
   12.9941   -4.8997  -10.1450 H   0  0  0  0  0  0  0  0  0  0  0  0
   11.2836   -3.9281   -8.0516 H   0  0  0  0  0  0  0  0  0  0  0  0
    7.8358   -7.3972   -5.5488 H   0  0  0  0  0  0  0  0  0  0  0  0
  1  2  1  0  0  0  0
  1 35  1  0  0  0  0
  1 36  1  0  0  0  0
  1 37  1  0  0  0  0
  2  3  1  0  0  0  0
  3  4  1  0  0  0  0
  3 38  1  0  0  0  0
  3 39  1  0  0  0  0
  4  5  1  0  0  0  0
  4 40  1  0  0  0  0
  4 41  1  0  0  0  0
  5  6  1  0  0  0  0
  5 42  1  0  0  0  0
  6  7  2  0  0  0  0
  6  8  2  0  0  0  0
  6  9  1  0  0  0  0
  9 10  1  0  0  0  0
  9 14  2  0  0  0  0
 10 11  2  0  0  0  0
 10 43  1  0  0  0  0
 11 12  1  0  0  0  0
 11 44  1  0  0  0  0
 12 13  2  0  0  0  0
 12 34  1  0  0  0  0
 13 14  1  0  0  0  0
 13 15  1  0  0  0  0
 14 45  1  0  0  0  0
 15 16  2  3  0  0  0
 15 32  1  0  0  0  0
 16 17  1  0  0  0  0
 16 23  1  0  0  0  0
 17 18  1  0  0  0  0
 17 22  2  0  0  0  0
 18 19  2  0  0  0  0
 18 46  1  0  0  0  0
 19 20  1  0  0  0  0
 19 47  1  0  0  0  0
 20 21  2  0  0  0  0
 20 48  1  0  0  0  0
 21 22  1  0  0  0  0
 21 49  1  0  0  0  0
 22 50  1  0  0  0  0
 23 24  2  0  0  0  0
 23 31  1  0  0  0  0
 24 25  1  0  0  0  0
 25 26  1  0  0  0  0
 25 30  2  0  0  0  0
 26 27  2  0  0  0  0
 26 51  1  0  0  0  0
 27 28  1  0  0  0  0
 27 52  1  0  0  0  0
 28 29  2  0  0  0  0
 28 53  1  0  0  0  0
 29 30  1  0  0  0  0
 29 54  1  0  0  0  0
 30 31  1  0  0  0  0
 31 55  1  0  0  0  0
 32 33  2  0  0  0  0
 32 34  1  0  0  0  0
 34 56  1  0  0  0  0
M  END
$$$$
