CHEMBL3984441
 OpenBabel04072215373D

 70 74  0  0  0  0  0  0  0  0999 V2000
    5.8444   -0.9166    0.6340 C   0  0  0  0  0  0  0  0  0  0  0  0
    4.5640   -0.4230    0.0315 C   0  0  0  0  0  0  0  0  0  0  0  0
    3.3775   -1.0670   -0.0135 C   0  0  0  0  0  0  0  0  0  0  0  0
    3.0179   -2.4635    0.3408 C   0  0  0  0  0  0  0  0  0  0  0  0
    3.8447   -3.2109    0.8534 O   0  0  0  0  0  0  0  0  0  0  0  0
    1.7343   -2.8247   -0.0371 N   0  0  0  0  0  0  0  0  0  0  0  0
    1.1515   -4.1081    0.0381 C   0  0  0  0  0  0  0  0  0  0  0  0
    1.6804   -5.1593    0.7904 C   0  0  0  0  0  0  0  0  0  0  0  0
    1.0819   -6.4284    0.7744 C   0  0  0  0  0  0  0  0  0  0  0  0
   -0.0517   -6.6725    0.0024 C   0  0  0  0  0  0  0  0  0  0  0  0
   -0.5289   -7.9668    0.0140 O   0  0  0  0  0  0  0  0  0  0  0  0
   -1.8816   -8.2122   -0.1071 C   0  0  0  0  0  0  0  0  0  0  0  0
   -2.8306   -7.3643    0.4623 C   0  0  0  0  0  0  0  0  0  0  0  0
   -4.1593   -7.6520    0.2466 C   0  0  0  0  0  0  0  0  0  0  0  0
   -4.5959   -8.7270   -0.4414 N   0  0  0  0  0  0  0  0  0  0  0  0
   -3.6845   -9.5861   -0.9258 C   0  0  0  0  0  0  0  0  0  0  0  0
   -4.1364  -10.7128   -1.6034 C   0  0  0  0  0  0  0  0  0  0  0  0
   -3.2684  -11.6797   -2.1175 C   0  0  0  0  0  0  0  0  0  0  0  0
   -3.8848  -12.7171   -2.7670 O   0  0  0  0  0  0  0  0  0  0  0  0
   -3.0395  -13.7322   -3.3244 C   0  0  0  0  0  0  0  0  0  0  0  0
   -3.9012  -14.7813   -4.0666 C   0  0  0  0  0  0  0  0  0  0  0  0
   -4.7077  -14.1606   -5.2091 C   0  0  0  0  0  0  0  0  0  0  0  0
   -3.0084  -15.9031   -4.5981 C   0  0  0  0  0  0  0  0  0  0  0  0
   -4.8286  -15.3734   -3.1486 O   0  0  0  0  0  0  0  0  0  0  0  0
   -1.9000  -11.5171   -1.9340 C   0  0  0  0  0  0  0  0  0  0  0  0
   -1.4166  -10.3781   -1.2746 C   0  0  0  0  0  0  0  0  0  0  0  0
   -2.2987   -9.3903   -0.7730 C   0  0  0  0  0  0  0  0  0  0  0  0
   -0.5689   -5.6150   -0.7645 C   0  0  0  0  0  0  0  0  0  0  0  0
   -1.6256   -5.7949   -1.5724 F   0  0  0  0  0  0  0  0  0  0  0  0
   -0.0042   -4.3373   -0.7141 C   0  0  0  0  0  0  0  0  0  0  0  0
    2.4112   -0.0333   -0.4663 C   0  0  0  0  0  0  0  0  0  0  0  0
    1.2287   -0.2676   -0.6776 O   0  0  0  0  0  0  0  0  0  0  0  0
    3.1196    1.1615   -0.6084 N   0  0  0  0  0  0  0  0  0  0  0  0
    2.5745    2.2717   -1.2735 C   0  0  0  0  0  0  0  0  0  0  0  0
    1.4256    2.8549   -0.7221 C   0  0  0  0  0  0  0  0  0  0  0  0
    0.8265    3.9556   -1.3292 C   0  0  0  0  0  0  0  0  0  0  0  0
    1.3520    4.4573   -2.5165 C   0  0  0  0  0  0  0  0  0  0  0  0
    2.4859    3.8706   -3.0836 C   0  0  0  0  0  0  0  0  0  0  0  0
    3.1119    2.7896   -2.4539 C   0  0  0  0  0  0  0  0  0  0  0  0
    4.4898    0.8701   -0.5201 N   0  0  0  0  0  0  0  0  0  0  0  0
    5.4093    1.9443   -0.1513 C   0  0  0  0  0  0  0  0  0  0  0  0
    5.8150   -1.9654    0.9318 H   0  0  0  0  0  0  0  0  0  0  0  0
    6.0645   -0.3392    1.5408 H   0  0  0  0  0  0  0  0  0  0  0  0
    6.6812   -0.7944   -0.0591 H   0  0  0  0  0  0  0  0  0  0  0  0
    1.1844   -2.1128   -0.5233 H   0  0  0  0  0  0  0  0  0  0  0  0
    2.5592   -5.0200    1.4141 H   0  0  0  0  0  0  0  0  0  0  0  0
    1.5161   -7.2296    1.3648 H   0  0  0  0  0  0  0  0  0  0  0  0
   -2.5587   -6.4870    1.0349 H   0  0  0  0  0  0  0  0  0  0  0  0
   -4.9402   -6.9954    0.6180 H   0  0  0  0  0  0  0  0  0  0  0  0
   -5.2085  -10.8406   -1.7318 H   0  0  0  0  0  0  0  0  0  0  0  0
   -2.5017  -14.2248   -2.5051 H   0  0  0  0  0  0  0  0  0  0  0  0
   -2.3290  -13.2837   -4.0289 H   0  0  0  0  0  0  0  0  0  0  0  0
   -4.0558  -13.7037   -5.9606 H   0  0  0  0  0  0  0  0  0  0  0  0
   -5.4032  -13.3988   -4.8408 H   0  0  0  0  0  0  0  0  0  0  0  0
   -5.3234  -14.9216   -5.7033 H   0  0  0  0  0  0  0  0  0  0  0  0
   -2.2794  -15.5288   -5.3242 H   0  0  0  0  0  0  0  0  0  0  0  0
   -3.6056  -16.6872   -5.0774 H   0  0  0  0  0  0  0  0  0  0  0  0
   -2.4644  -16.3877   -3.7792 H   0  0  0  0  0  0  0  0  0  0  0  0
   -5.3348  -14.6380   -2.7545 H   0  0  0  0  0  0  0  0  0  0  0  0
   -1.1810  -12.2498   -2.2859 H   0  0  0  0  0  0  0  0  0  0  0  0
   -0.3412  -10.2698   -1.1410 H   0  0  0  0  0  0  0  0  0  0  0  0
   -0.4585   -3.5498   -1.3087 H   0  0  0  0  0  0  0  0  0  0  0  0
    1.0068    2.4639    0.2027 H   0  0  0  0  0  0  0  0  0  0  0  0
   -0.0507    4.4109   -0.8775 H   0  0  0  0  0  0  0  0  0  0  0  0
    0.8703    5.3010   -3.0044 H   0  0  0  0  0  0  0  0  0  0  0  0
    2.8722    4.2505   -4.0262 H   0  0  0  0  0  0  0  0  0  0  0  0
    3.9769    2.3255   -2.9195 H   0  0  0  0  0  0  0  0  0  0  0  0
    5.1339    2.9062   -0.5925 H   0  0  0  0  0  0  0  0  0  0  0  0
    6.4147    1.7087   -0.5195 H   0  0  0  0  0  0  0  0  0  0  0  0
    5.4568    2.0698    0.9350 H   0  0  0  0  0  0  0  0  0  0  0  0
  1  2  1  0  0  0  0
  1 42  1  0  0  0  0
  1 43  1  0  0  0  0
  1 44  1  0  0  0  0
  2  3  2  0  0  0  0
  2 40  1  0  0  0  0
  3  4  1  0  0  0  0
  3 31  1  0  0  0  0
  4  5  2  0  0  0  0
  4  6  1  0  0  0  0
  6  7  1  0  0  0  0
  6 45  1  0  0  0  0
  7  8  1  0  0  0  0
  7 30  2  0  0  0  0
  8  9  2  0  0  0  0
  8 46  1  0  0  0  0
  9 10  1  0  0  0  0
  9 47  1  0  0  0  0
 10 11  1  0  0  0  0
 10 28  2  0  0  0  0
 11 12  1  0  0  0  0
 12 13  1  0  0  0  0
 12 27  2  0  0  0  0
 13 14  2  0  0  0  0
 13 48  1  0  0  0  0
 14 15  1  0  0  0  0
 14 49  1  0  0  0  0
 15 16  2  0  0  0  0
 16 17  1  0  0  0  0
 16 27  1  0  0  0  0
 17 18  2  0  0  0  0
 17 50  1  0  0  0  0
 18 19  1  0  0  0  0
 18 25  1  0  0  0  0
 19 20  1  0  0  0  0
 20 21  1  0  0  0  0
 20 51  1  0  0  0  0
 20 52  1  0  0  0  0
 21 22  1  0  0  0  0
 21 23  1  0  0  0  0
 21 24  1  0  0  0  0
 22 53  1  0  0  0  0
 22 54  1  0  0  0  0
 22 55  1  0  0  0  0
 23 56  1  0  0  0  0
 23 57  1  0  0  0  0
 23 58  1  0  0  0  0
 24 59  1  0  0  0  0
 25 26  2  0  0  0  0
 25 60  1  0  0  0  0
 26 27  1  0  0  0  0
 26 61  1  0  0  0  0
 28 29  1  0  0  0  0
 28 30  1  0  0  0  0
 30 62  1  0  0  0  0
 31 32  2  0  0  0  0
 31 33  1  0  0  0  0
 33 34  1  0  0  0  0
 33 40  1  0  0  0  0
 34 35  1  0  0  0  0
 34 39  2  0  0  0  0
 35 36  2  0  0  0  0
 35 63  1  0  0  0  0
 36 37  1  0  0  0  0
 36 64  1  0  0  0  0
 37 38  2  0  0  0  0
 37 65  1  0  0  0  0
 38 39  1  0  0  0  0
 38 66  1  0  0  0  0
 39 67  1  0  0  0  0
 40 41  1  0  0  0  0
 41 68  1  0  0  0  0
 41 69  1  0  0  0  0
 41 70  1  0  0  0  0
M  END
$$$$
