CHEMBL3676382
 OpenBabel04072215373D

 66 68  0  0  0  0  0  0  0  0999 V2000
    2.0989   -0.0506   -2.0769 C   0  0  0  0  0  0  0  0  0  0  0  0
    2.7525    0.1695   -0.9311 C   0  0  0  0  0  0  0  0  0  0  0  0
    3.4134    1.4774   -0.6485 C   0  0  0  0  0  0  0  0  0  0  0  0
    3.1468    2.4900   -1.2775 O   0  0  0  0  0  0  0  0  0  0  0  0
    4.3660    1.3513    0.3498 N   0  0  0  0  0  0  0  0  0  0  0  0
    5.1079    2.4978    0.7130 C   0  0  0  0  0  0  0  0  0  0  0  0
    6.2339    2.8069   -0.0483 C   0  0  0  0  0  0  0  0  0  0  0  0
    6.9124    4.0316    0.1371 C   0  0  0  0  0  0  0  0  0  0  0  0
    7.9821    4.4781   -0.6586 C   0  0  0  0  0  0  0  0  0  0  0  0
    8.3632    3.7093   -1.8013 N   0  0  0  0  0  0  0  0  0  0  0  0
    9.5619    3.8940   -2.5299 C   0  0  0  0  0  0  0  0  0  0  0  0
   10.7517    3.9873   -1.7713 C   0  0  0  0  0  0  0  0  0  0  0  0
   12.0206    4.2234   -2.3197 C   0  0  0  0  0  0  0  0  0  0  0  0
   12.9678    4.2995   -1.3402 O   0  0  0  0  0  0  0  0  0  0  0  0
   14.2948    4.6809   -1.6445 C   0  0  0  0  0  0  0  0  0  0  0  0
   12.1150    4.3304   -3.7022 C   0  0  0  0  0  0  0  0  0  0  0  0
   13.5664    4.6341   -4.5884 Cl  0  0  0  0  0  0  0  0  0  0  0  0
   10.9572    4.1799   -4.4824 C   0  0  0  0  0  0  0  0  0  0  0  0
    9.6818    3.9617   -3.9248 C   0  0  0  0  0  0  0  0  0  0  0  0
    8.7465    3.8538   -4.9159 O   0  0  0  0  0  0  0  0  0  0  0  0
    7.3634    3.7956   -4.6384 C   0  0  0  0  0  0  0  0  0  0  0  0
    8.6252    5.6320   -0.4079 N   0  0  0  0  0  0  0  0  0  0  0  0
    8.1774    6.3599    0.6169 C   0  0  0  0  0  0  0  0  0  0  0  0
    7.1408    6.0563    1.4054 N   0  0  0  0  0  0  0  0  0  0  0  0
    6.5115    4.9008    1.1614 C   0  0  0  0  0  0  0  0  0  0  0  0
    5.4205    4.5419    1.9488 C   0  0  0  0  0  0  0  0  0  0  0  0
    4.7155    3.3444    1.7580 C   0  0  0  0  0  0  0  0  0  0  0  0
    3.7021    3.1313    2.6648 O   0  0  0  0  0  0  0  0  0  0  0  0
    3.4353    1.7626    2.9934 C   0  0  0  0  0  0  0  0  0  0  0  0
    2.9193    1.6247    4.4320 C   0  0  0  0  0  0  0  0  0  0  0  0
    2.7466    0.2295    4.8214 N   0  0  0  0  0  0  0  0  0  0  0  0
    3.8279   -0.5512    5.1896 C   0  0  0  0  0  0  0  0  0  0  0  0
    4.9587   -0.0993    5.3303 O   0  0  0  0  0  0  0  0  0  0  0  0
    3.5138   -2.0437    5.3702 C   0  0  0  0  0  0  0  0  0  0  0  0
    3.1057   -2.6681    4.0855 N   0  0  0  0  0  0  0  0  0  0  0  0
    4.2034   -2.6205    3.1103 C   0  0  0  0  0  0  0  0  0  0  0  0
    2.7466   -4.0739    4.3198 C   0  0  0  0  0  0  0  0  0  0  0  0
    1.5800   -0.9873   -2.2495 H   0  0  0  0  0  0  0  0  0  0  0  0
    2.0516    0.7017   -2.8634 H   0  0  0  0  0  0  0  0  0  0  0  0
    2.7687   -0.5774   -0.1511 H   0  0  0  0  0  0  0  0  0  0  0  0
    4.9040    0.5014    0.2551 H   0  0  0  0  0  0  0  0  0  0  0  0
    6.5630    2.1174   -0.8204 H   0  0  0  0  0  0  0  0  0  0  0  0
    7.5426    3.6060   -2.3732 H   0  0  0  0  0  0  0  0  0  0  0  0
   10.6853    3.8849   -0.6873 H   0  0  0  0  0  0  0  0  0  0  0  0
   14.8339    4.7691   -0.6957 H   0  0  0  0  0  0  0  0  0  0  0  0
   14.3323    5.6624   -2.1255 H   0  0  0  0  0  0  0  0  0  0  0  0
   14.7981    3.9054   -2.2274 H   0  0  0  0  0  0  0  0  0  0  0  0
   11.0395    4.2444   -5.5674 H   0  0  0  0  0  0  0  0  0  0  0  0
    6.8296    3.8062   -5.5942 H   0  0  0  0  0  0  0  0  0  0  0  0
    7.0317    4.6710   -4.0725 H   0  0  0  0  0  0  0  0  0  0  0  0
    7.1071    2.8538   -4.1449 H   0  0  0  0  0  0  0  0  0  0  0  0
    8.7008    7.2871    0.8225 H   0  0  0  0  0  0  0  0  0  0  0  0
    5.1121    5.2187    2.7431 H   0  0  0  0  0  0  0  0  0  0  0  0
    4.3387    1.1490    2.9003 H   0  0  0  0  0  0  0  0  0  0  0  0
    2.6633    1.3857    2.3127 H   0  0  0  0  0  0  0  0  0  0  0  0
    1.9526    2.1268    4.5440 H   0  0  0  0  0  0  0  0  0  0  0  0
    3.6173    2.1060    5.1265 H   0  0  0  0  0  0  0  0  0  0  0  0
    1.8976   -0.2593    4.5571 H   0  0  0  0  0  0  0  0  0  0  0  0
    2.7000   -2.1196    6.1023 H   0  0  0  0  0  0  0  0  0  0  0  0
    4.3943   -2.5384    5.7995 H   0  0  0  0  0  0  0  0  0  0  0  0
    4.4936   -1.5899    2.8831 H   0  0  0  0  0  0  0  0  0  0  0  0
    3.8808   -3.0600    2.1593 H   0  0  0  0  0  0  0  0  0  0  0  0
    5.0920   -3.1626    3.4548 H   0  0  0  0  0  0  0  0  0  0  0  0
    1.9332   -4.1546    5.0488 H   0  0  0  0  0  0  0  0  0  0  0  0
    3.5952   -4.6657    4.6853 H   0  0  0  0  0  0  0  0  0  0  0  0
    2.3854   -4.5347    3.3929 H   0  0  0  0  0  0  0  0  0  0  0  0
  1  2  2  0  0  0  0
  1 38  1  0  0  0  0
  1 39  1  0  0  0  0
  2  3  1  0  0  0  0
  2 40  1  0  0  0  0
  3  4  2  0  0  0  0
  3  5  1  0  0  0  0
  5  6  1  0  0  0  0
  5 41  1  0  0  0  0
  6  7  1  0  0  0  0
  6 27  2  0  0  0  0
  7  8  2  0  0  0  0
  7 42  1  0  0  0  0
  8  9  1  0  0  0  0
  8 25  1  0  0  0  0
  9 10  1  0  0  0  0
  9 22  2  0  0  0  0
 10 11  1  0  0  0  0
 10 43  1  0  0  0  0
 11 12  1  0  0  0  0
 11 19  2  0  0  0  0
 12 13  2  0  0  0  0
 12 44  1  0  0  0  0
 13 14  1  0  0  0  0
 13 16  1  0  0  0  0
 14 15  1  0  0  0  0
 15 45  1  0  0  0  0
 15 46  1  0  0  0  0
 15 47  1  0  0  0  0
 16 17  1  0  0  0  0
 16 18  2  0  0  0  0
 18 19  1  0  0  0  0
 18 48  1  0  0  0  0
 19 20  1  0  0  0  0
 20 21  1  0  0  0  0
 21 49  1  0  0  0  0
 21 50  1  0  0  0  0
 21 51  1  0  0  0  0
 22 23  1  0  0  0  0
 23 24  2  0  0  0  0
 23 52  1  0  0  0  0
 24 25  1  0  0  0  0
 25 26  2  0  0  0  0
 26 27  1  0  0  0  0
 26 53  1  0  0  0  0
 27 28  1  0  0  0  0
 28 29  1  0  0  0  0
 29 30  1  0  0  0  0
 29 54  1  0  0  0  0
 29 55  1  0  0  0  0
 30 31  1  0  0  0  0
 30 56  1  0  0  0  0
 30 57  1  0  0  0  0
 31 32  1  0  0  0  0
 31 58  1  0  0  0  0
 32 33  2  0  0  0  0
 32 34  1  0  0  0  0
 34 35  1  0  0  0  0
 34 59  1  0  0  0  0
 34 60  1  0  0  0  0
 35 36  1  0  0  0  0
 35 37  1  0  0  0  0
 36 61  1  0  0  0  0
 36 62  1  0  0  0  0
 36 63  1  0  0  0  0
 37 64  1  0  0  0  0
 37 65  1  0  0  0  0
 37 66  1  0  0  0  0
M  END
$$$$
