CHEMBL4095789
 OpenBabel04072215383D

 67 73  0  0  1  0  0  0  0  0999 V2000
    4.8060    2.8602   -1.0613 N   0  0  0  0  0  0  0  0  0  0  0  0
    4.5006    1.5569   -0.9051 C   0  0  0  0  0  0  0  0  0  0  0  0
    5.2816    0.6880   -0.3084 N   0  0  0  0  0  0  0  0  0  0  0  0
    4.6192   -0.4944   -0.4274 C   0  0  0  0  0  0  0  0  0  0  0  0
    5.2109   -1.5806    0.1107 N   0  0  0  0  0  0  0  0  0  0  0  0
    4.9351   -2.9569   -0.0183 C   0  0  0  0  0  0  0  0  0  0  0  0
    4.0981   -3.4744   -1.0039 C   0  0  0  0  0  0  0  0  0  0  0  0
    3.7881   -4.8423   -1.0532 C   0  0  0  0  0  0  0  0  0  0  0  0
    4.2798   -5.7618   -0.1137 C   0  0  0  0  0  0  0  0  0  0  0  0
    3.9296   -7.1126   -0.2287 N   0  0  0  0  0  0  0  0  0  0  0  0
    4.7469   -8.1443    0.4344 C   0  0  0  0  0  0  0  0  0  0  0  0
    4.3696   -9.5581   -0.0960 C   0  0  0  0  0  0  0  0  0  0  0  0
    2.9290   -9.9268    0.0001 N   0  0  0  0  0  0  0  0  0  0  0  0
    2.5006  -10.1944    1.3813 C   0  0  3  0  0  0  0  0  0  0  0  0
    3.1832  -11.4426    2.0111 C   0  0  0  0  0  0  0  0  0  0  0  0
    2.0079  -12.2486    2.5933 C   0  0  3  0  0  0  0  0  0  0  0  0
    1.2432  -12.9064    1.4323 C   0  0  0  0  0  0  0  0  0  0  0  0
    0.5020  -11.7216    0.8001 C   0  0  0  0  0  0  0  0  0  0  0  0
    0.9931  -10.5187    1.6259 C   0  0  3  0  0  0  0  0  0  0  0  0
    1.0487  -11.1434    3.0257 C   0  0  0  0  0  0  0  0  0  0  0  0
    2.1650   -8.8411   -0.6605 C   0  0  0  0  0  0  0  0  0  0  0  0
    2.4739   -7.3963   -0.1858 C   0  0  0  0  0  0  0  0  0  0  0  0
    5.1383   -5.2431    0.8639 C   0  0  0  0  0  0  0  0  0  0  0  0
    5.4512   -3.8663    0.9169 C   0  0  0  0  0  0  0  0  0  0  0  0
    3.4467   -0.4023   -1.0478 N   0  0  0  0  0  0  0  0  0  0  0  0
    3.3228    0.9207   -1.3253 N   0  0  0  0  0  0  0  0  0  0  0  0
    2.1157    1.5028   -1.8745 C   0  0  0  0  0  0  0  0  0  0  0  0
    2.1298    2.8495   -2.0839 N   0  0  0  0  0  0  0  0  0  0  0  0
    0.9608    3.4113   -2.3948 C   0  0  0  0  0  0  0  0  0  0  0  0
   -0.2159    2.7858   -2.4958 N   0  0  0  0  0  0  0  0  0  0  0  0
   -0.2207    1.4628   -2.3248 C   0  0  0  0  0  0  0  0  0  0  0  0
   -1.4568    0.8195   -2.3825 C   0  0  0  0  0  0  0  0  0  0  0  0
   -1.5819   -0.5614   -2.2252 C   0  0  0  0  0  0  0  0  0  0  0  0
   -0.4430   -1.3166   -2.0743 C   0  0  0  0  0  0  0  0  0  0  0  0
   -0.5287   -2.6479   -1.9678 F   0  0  0  0  0  0  0  0  0  0  0  0
    0.8008   -0.7037   -2.0201 C   0  0  0  0  0  0  0  0  0  0  0  0
    0.9455    0.7154   -2.0693 C   0  0  0  0  0  0  0  0  0  0  0  0
    5.7615    3.1242   -0.8383 H   0  0  0  0  0  0  0  0  0  0  0  0
    4.3944    3.3803   -1.8331 H   0  0  0  0  0  0  0  0  0  0  0  0
    6.0634   -1.3842    0.6188 H   0  0  0  0  0  0  0  0  0  0  0  0
    3.6976   -2.8318   -1.7811 H   0  0  0  0  0  0  0  0  0  0  0  0
    3.1683   -5.1912   -1.8753 H   0  0  0  0  0  0  0  0  0  0  0  0
    4.6166   -8.1056    1.5222 H   0  0  0  0  0  0  0  0  0  0  0  0
    5.8091   -7.9790    0.2142 H   0  0  0  0  0  0  0  0  0  0  0  0
    4.9987  -10.3115    0.3901 H   0  0  0  0  0  0  0  0  0  0  0  0
    4.6438   -9.6020   -1.1598 H   0  0  0  0  0  0  0  0  0  0  0  0
    2.7430   -9.3285    2.0111 H   0  0  0  0  0  0  0  0  0  0  0  0
    3.8655  -11.1243    2.8083 H   0  0  0  0  0  0  0  0  0  0  0  0
    3.7584  -12.0432    1.2982 H   0  0  0  0  0  0  0  0  0  0  0  0
    2.3032  -12.9534    3.3734 H   0  0  0  0  0  0  0  0  0  0  0  0
    0.5277  -13.6498    1.8027 H   0  0  0  0  0  0  0  0  0  0  0  0
    1.9070  -13.4027    0.7171 H   0  0  0  0  0  0  0  0  0  0  0  0
   -0.5788  -11.8553    0.9400 H   0  0  0  0  0  0  0  0  0  0  0  0
    0.6903  -11.6306   -0.2723 H   0  0  0  0  0  0  0  0  0  0  0  0
    0.3393   -9.6469    1.5518 H   0  0  0  0  0  0  0  0  0  0  0  0
    0.0808  -11.5231    3.3713 H   0  0  0  0  0  0  0  0  0  0  0  0
    1.4713  -10.4762    3.7838 H   0  0  0  0  0  0  0  0  0  0  0  0
    1.0876   -9.0269   -0.5934 H   0  0  0  0  0  0  0  0  0  0  0  0
    2.3912   -8.8962   -1.7348 H   0  0  0  0  0  0  0  0  0  0  0  0
    2.0986   -7.2503    0.8344 H   0  0  0  0  0  0  0  0  0  0  0  0
    1.9158   -6.7183   -0.8409 H   0  0  0  0  0  0  0  0  0  0  0  0
    5.5608   -5.8883    1.6292 H   0  0  0  0  0  0  0  0  0  0  0  0
    6.0918   -3.5127    1.7217 H   0  0  0  0  0  0  0  0  0  0  0  0
    0.9498    4.4825   -2.5749 H   0  0  0  0  0  0  0  0  0  0  0  0
   -2.3564    1.4153   -2.5354 H   0  0  0  0  0  0  0  0  0  0  0  0
   -2.5567   -1.0427   -2.2275 H   0  0  0  0  0  0  0  0  0  0  0  0
    1.6533   -1.3676   -1.9428 H   0  0  0  0  0  0  0  0  0  0  0  0
  1  2  1  0  0  0  0
  1 38  1  0  0  0  0
  1 39  1  0  0  0  0
  2  3  2  0  0  0  0
  2 26  1  0  0  0  0
  3  4  1  0  0  0  0
  4  5  1  0  0  0  0
  4 25  2  0  0  0  0
  5  6  1  0  0  0  0
  5 40  1  0  0  0  0
  6  7  1  0  0  0  0
  6 24  2  0  0  0  0
  7  8  2  0  0  0  0
  7 41  1  0  0  0  0
  8  9  1  0  0  0  0
  8 42  1  0  0  0  0
  9 10  1  0  0  0  0
  9 23  2  0  0  0  0
 10 11  1  0  0  0  0
 10 22  1  0  0  0  0
 11 12  1  0  0  0  0
 11 43  1  0  0  0  0
 11 44  1  0  0  0  0
 12 13  1  0  0  0  0
 12 45  1  0  0  0  0
 12 46  1  0  0  0  0
 13 14  1  0  0  0  0
 13 21  1  0  0  0  0
 14 15  1  0  0  0  0
 14 19  1  0  0  0  0
 14 47  1  0  0  0  0
 15 16  1  0  0  0  0
 15 48  1  0  0  0  0
 15 49  1  0  0  0  0
 16 17  1  0  0  0  0
 16 20  1  0  0  0  0
 16 50  1  0  0  0  0
 17 18  1  0  0  0  0
 17 51  1  0  0  0  0
 17 52  1  0  0  0  0
 18 19  1  0  0  0  0
 18 53  1  0  0  0  0
 18 54  1  0  0  0  0
 19 20  1  0  0  0  0
 19 55  1  0  0  0  0
 20 56  1  0  0  0  0
 20 57  1  0  0  0  0
 21 22  1  0  0  0  0
 21 58  1  0  0  0  0
 21 59  1  0  0  0  0
 22 60  1  0  0  0  0
 22 61  1  0  0  0  0
 23 24  1  0  0  0  0
 23 62  1  0  0  0  0
 24 63  1  0  0  0  0
 25 26  1  0  0  0  0
 26 27  1  0  0  0  0
 27 28  1  0  0  0  0
 27 37  2  0  0  0  0
 28 29  2  0  0  0  0
 29 30  1  0  0  0  0
 29 64  1  0  0  0  0
 30 31  2  0  0  0  0
 31 32  1  0  0  0  0
 31 37  1  0  0  0  0
 32 33  2  0  0  0  0
 32 65  1  0  0  0  0
 33 34  1  0  0  0  0
 33 66  1  0  0  0  0
 34 35  1  0  0  0  0
 34 36  2  0  0  0  0
 36 37  1  0  0  0  0
 36 67  1  0  0  0  0
M  END
$$$$
