CHEMBL256195
 OpenBabel04072215363D

 63 67  0  0  1  0  0  0  0  0999 V2000
    3.0101    3.4851   -3.4396 C   0  0  0  0  0  0  0  0  0  0  0  0
    3.5922    2.1597   -2.9511 C   0  0  3  0  0  0  0  0  0  0  0  0
    4.7942    1.8309   -3.7286 N   0  0  0  0  0  0  0  0  0  0  0  0
    3.9012    2.1937   -1.4418 C   0  0  0  0  0  0  0  0  0  0  0  0
    4.7492    3.3030   -1.1292 O   0  0  0  0  0  0  0  0  0  0  0  0
    5.1029    3.3334    0.1481 C   0  0  0  0  0  0  0  0  0  0  0  0
    5.1423    2.3526    1.0116 N   0  0  0  0  0  0  0  0  0  0  0  0
    5.4956    2.9331    2.2042 N   0  0  0  0  0  0  0  0  0  0  0  0
    5.6068    4.2357    1.9924 C   0  0  0  0  0  0  0  0  0  0  0  0
    5.9003    5.2389    3.0626 C   0  0  0  0  0  0  0  0  0  0  0  0
    5.9236    6.5859    2.8170 C   0  0  0  0  0  0  0  0  0  0  0  0
    6.1923    7.2227    3.9882 N   0  0  0  0  0  0  0  0  0  0  0  0
    6.2399    8.5557    4.1002 N   0  0  0  0  0  0  0  0  0  0  0  0
    6.5725    8.9705    5.2708 C   0  0  0  0  0  0  0  0  0  0  0  0
    6.8850    8.1888    6.3441 N   0  0  0  0  0  0  0  0  0  0  0  0
    6.8392    6.8872    6.2565 C   0  0  0  0  0  0  0  0  0  0  0  0
    7.1929    6.1510    7.3700 N   0  0  0  0  0  0  0  0  0  0  0  0
    8.0641    6.6396    8.3803 C   0  0  0  0  0  0  0  0  0  0  0  0
    9.2015    7.4066    8.0756 C   0  0  0  0  0  0  0  0  0  0  0  0
   10.0749    7.8603    9.0823 C   0  0  0  0  0  0  0  0  0  0  0  0
   11.2353    8.7071    8.6794 C   0  0  0  0  0  0  0  0  0  0  0  0
   11.3950    8.9806    7.4921 O   0  0  0  0  0  0  0  0  0  0  0  0
   12.0849    9.1573    9.6734 N   0  0  0  0  0  0  0  0  0  0  0  0
   13.2003   10.0091    9.3902 C   0  0  0  0  0  0  0  0  0  0  0  0
   14.1409   10.4649   10.4716 C   0  0  0  0  0  0  0  0  0  0  0  0
   13.1896   11.4413    9.8477 C   0  0  0  0  0  0  0  0  0  0  0  0
    9.8078    7.5065   10.4057 C   0  0  0  0  0  0  0  0  0  0  0  0
   10.6169    7.8974   11.4024 F   0  0  0  0  0  0  0  0  0  0  0  0
    8.6947    6.7363   10.7333 C   0  0  0  0  0  0  0  0  0  0  0  0
    7.8389    6.3096    9.7226 C   0  0  0  0  0  0  0  0  0  0  0  0
    6.7600    5.5811   10.0473 F   0  0  0  0  0  0  0  0  0  0  0  0
    6.4186    6.3113    4.9936 C   0  0  0  0  0  0  0  0  0  0  0  0
    6.2091    5.0258    4.4678 C   0  0  0  0  0  0  0  0  0  0  0  0
    6.3325    3.6244    5.0521 C   0  0  0  0  0  0  0  0  0  0  0  0
    7.7235    3.0395    4.7927 C   0  0  0  0  0  0  0  0  0  0  0  0
    5.9299    3.4042    6.5024 C   0  0  0  0  0  0  0  0  0  0  0  0
    5.3901    4.5564    0.6706 O   0  0  0  0  0  0  0  0  0  0  0  0
    2.7553    3.4319   -4.5037 H   0  0  0  0  0  0  0  0  0  0  0  0
    3.7126    4.3147   -3.3052 H   0  0  0  0  0  0  0  0  0  0  0  0
    2.0938    3.7265   -2.8902 H   0  0  0  0  0  0  0  0  0  0  0  0
    2.8575    1.3653   -3.1268 H   0  0  0  0  0  0  0  0  0  0  0  0
    5.4956    2.5589   -3.5837 H   0  0  0  0  0  0  0  0  0  0  0  0
    4.5745    1.8440   -4.7239 H   0  0  0  0  0  0  0  0  0  0  0  0
    4.3628    1.2439   -1.1413 H   0  0  0  0  0  0  0  0  0  0  0  0
    2.9586    2.3116   -0.8906 H   0  0  0  0  0  0  0  0  0  0  0  0
    5.7773    7.1546    1.9086 H   0  0  0  0  0  0  0  0  0  0  0  0
    6.6200   10.0593    5.4454 H   0  0  0  0  0  0  0  0  0  0  0  0
    6.4055    5.6541    7.7752 H   0  0  0  0  0  0  0  0  0  0  0  0
    9.4131    7.6636    7.0378 H   0  0  0  0  0  0  0  0  0  0  0  0
   11.9009    8.9117   10.6410 H   0  0  0  0  0  0  0  0  0  0  0  0
   13.6542    9.8097    8.4200 H   0  0  0  0  0  0  0  0  0  0  0  0
   15.1922   10.5532   10.2182 H   0  0  0  0  0  0  0  0  0  0  0  0
   13.9582   10.1680   11.4969 H   0  0  0  0  0  0  0  0  0  0  0  0
   13.5877   12.1863    9.1684 H   0  0  0  0  0  0  0  0  0  0  0  0
   12.3525   11.7878   10.4435 H   0  0  0  0  0  0  0  0  0  0  0  0
    8.4940    6.4749   11.7663 H   0  0  0  0  0  0  0  0  0  0  0  0
    5.6142    2.9956    4.5127 H   0  0  0  0  0  0  0  0  0  0  0  0
    8.5048    3.6664    5.2321 H   0  0  0  0  0  0  0  0  0  0  0  0
    7.9245    2.9583    3.7190 H   0  0  0  0  0  0  0  0  0  0  0  0
    7.8096    2.0326    5.2171 H   0  0  0  0  0  0  0  0  0  0  0  0
    6.6934    3.7489    7.1975 H   0  0  0  0  0  0  0  0  0  0  0  0
    5.8307    2.3268    6.6923 H   0  0  0  0  0  0  0  0  0  0  0  0
    4.9679    3.8677    6.7361 H   0  0  0  0  0  0  0  0  0  0  0  0
  1  2  1  0  0  0  0
  1 38  1  0  0  0  0
  1 39  1  0  0  0  0
  1 40  1  0  0  0  0
  2  3  1  0  0  0  0
  2  4  1  0  0  0  0
  2 41  1  0  0  0  0
  3 42  1  0  0  0  0
  3 43  1  0  0  0  0
  4  5  1  0  0  0  0
  4 44  1  0  0  0  0
  4 45  1  0  0  0  0
  5  6  1  0  0  0  0
  6  7  2  0  0  0  0
  6 37  1  0  0  0  0
  7  8  1  0  0  0  0
  8  9  2  0  0  0  0
  9 10  1  0  0  0  0
  9 37  1  0  0  0  0
 10 11  2  0  0  0  0
 10 33  1  0  0  0  0
 11 12  1  0  0  0  0
 11 46  1  0  0  0  0
 12 13  1  0  0  0  0
 12 32  1  0  0  0  0
 13 14  2  0  0  0  0
 14 15  1  0  0  0  0
 14 47  1  0  0  0  0
 15 16  2  0  0  0  0
 16 17  1  0  0  0  0
 16 32  1  0  0  0  0
 17 18  1  0  0  0  0
 17 48  1  0  0  0  0
 18 19  1  0  0  0  0
 18 30  2  0  0  0  0
 19 20  2  0  0  0  0
 19 49  1  0  0  0  0
 20 21  1  0  0  0  0
 20 27  1  0  0  0  0
 21 22  2  0  0  0  0
 21 23  1  0  0  0  0
 23 24  1  0  0  0  0
 23 50  1  0  0  0  0
 24 25  1  0  0  0  0
 24 26  1  0  0  0  0
 24 51  1  0  0  0  0
 25 26  1  0  0  0  0
 25 52  1  0  0  0  0
 25 53  1  0  0  0  0
 26 54  1  0  0  0  0
 26 55  1  0  0  0  0
 27 28  1  0  0  0  0
 27 29  2  0  0  0  0
 29 30  1  0  0  0  0
 29 56  1  0  0  0  0
 30 31  1  0  0  0  0
 32 33  2  0  0  0  0
 33 34  1  0  0  0  0
 34 35  1  0  0  0  0
 34 36  1  0  0  0  0
 34 57  1  0  0  0  0
 35 58  1  0  0  0  0
 35 59  1  0  0  0  0
 35 60  1  0  0  0  0
 36 61  1  0  0  0  0
 36 62  1  0  0  0  0
 36 63  1  0  0  0  0
M  END
$$$$
