CHEMBL2046839
 OpenBabel04072215363D

 45 48  0  0  0  0  0  0  0  0999 V2000
    1.1414   -0.4465    0.4316 O   0  0  0  0  0  0  0  0  0  0  0  0
    2.2123    0.0501    0.1131 C   0  0  0  0  0  0  0  0  0  0  0  0
    2.7578    1.1823    0.6864 N   0  0  0  0  0  0  0  0  0  0  0  0
    2.1627    1.9838    1.7061 C   0  0  0  0  0  0  0  0  0  0  0  0
    1.0250    1.6202    2.4192 C   0  0  0  0  0  0  0  0  0  0  0  0
    0.4779    2.4760    3.4066 C   0  0  0  0  0  0  0  0  0  0  0  0
    1.0666    3.7009    3.7154 C   0  0  0  0  0  0  0  0  0  0  0  0
    0.6311    4.5377    4.8685 C   0  0  0  0  0  0  0  0  0  0  0  0
    0.2129    3.9468    6.0841 C   0  0  0  0  0  0  0  0  0  0  0  0
    0.1686    4.6685    7.2971 C   0  0  0  0  0  0  0  0  0  0  0  0
    0.6197    5.9818    7.3472 C   0  0  0  0  0  0  0  0  0  0  0  0
    0.9159    6.5667    6.1385 C   0  0  0  0  0  0  0  0  0  0  0  0
    1.3098    7.9322    5.8281 C   0  0  0  0  0  0  0  0  0  0  0  0
    1.6937    8.7590    6.6324 O   0  0  0  0  0  0  0  0  0  0  0  0
    1.1415    8.0920    4.4576 N   0  0  0  0  0  0  0  0  0  0  0  0
    0.7489    6.8528    3.8532 N   0  0  0  0  0  0  0  0  0  0  0  0
    0.8079    5.9187    4.9121 C   0  0  0  0  0  0  0  0  0  0  0  0
    2.2302    4.0402    2.9981 C   0  0  0  0  0  0  0  0  0  0  0  0
    2.7678    3.1969    2.0047 C   0  0  0  0  0  0  0  0  0  0  0  0
    3.0264   -0.4312   -0.9108 N   0  0  0  0  0  0  0  0  0  0  0  0
    2.7016   -1.4491   -1.8417 C   0  0  0  0  0  0  0  0  0  0  0  0
    1.4666   -2.0987   -1.8823 C   0  0  0  0  0  0  0  0  0  0  0  0
    1.1980   -3.0734   -2.8463 C   0  0  0  0  0  0  0  0  0  0  0  0
    2.1606   -3.4046   -3.7938 C   0  0  0  0  0  0  0  0  0  0  0  0
    3.4063   -2.7651   -3.7829 C   0  0  0  0  0  0  0  0  0  0  0  0
    4.4535   -3.0991   -4.8162 C   0  0  0  0  0  0  0  0  0  0  0  0
    4.0619   -4.0588   -5.7022 F   0  0  0  0  0  0  0  0  0  0  0  0
    4.8004   -2.0184   -5.5693 F   0  0  0  0  0  0  0  0  0  0  0  0
    5.6085   -3.5530   -4.2599 F   0  0  0  0  0  0  0  0  0  0  0  0
    3.6691   -1.7924   -2.7966 C   0  0  0  0  0  0  0  0  0  0  0  0
    3.5956    1.5552    0.2761 H   0  0  0  0  0  0  0  0  0  0  0  0
    0.5334    0.6631    2.2706 H   0  0  0  0  0  0  0  0  0  0  0  0
   -0.4018    2.1242    3.9385 H   0  0  0  0  0  0  0  0  0  0  0  0
   -0.0496    2.8911    6.1208 H   0  0  0  0  0  0  0  0  0  0  0  0
   -0.1806    4.1806    8.2041 H   0  0  0  0  0  0  0  0  0  0  0  0
    0.6689    6.5458    8.2712 H   0  0  0  0  0  0  0  0  0  0  0  0
    0.5089    8.8647    4.2538 H   0  0  0  0  0  0  0  0  0  0  0  0
    1.2613    6.5876    3.0163 H   0  0  0  0  0  0  0  0  0  0  0  0
    2.7826    4.9463    3.2338 H   0  0  0  0  0  0  0  0  0  0  0  0
    3.6756    3.5180    1.4984 H   0  0  0  0  0  0  0  0  0  0  0  0
    3.9549   -0.0431   -0.9768 H   0  0  0  0  0  0  0  0  0  0  0  0
    0.6729   -1.8707   -1.1784 H   0  0  0  0  0  0  0  0  0  0  0  0
    0.2285   -3.5661   -2.8543 H   0  0  0  0  0  0  0  0  0  0  0  0
    1.9305   -4.1614   -4.5424 H   0  0  0  0  0  0  0  0  0  0  0  0
    4.6403   -1.2998   -2.7964 H   0  0  0  0  0  0  0  0  0  0  0  0
  1  2  2  0  0  0  0
  2  3  1  0  0  0  0
  2 20  1  0  0  0  0
  3  4  1  0  0  0  0
  3 31  1  0  0  0  0
  4  5  1  0  0  0  0
  4 19  2  0  0  0  0
  5  6  2  0  0  0  0
  5 32  1  0  0  0  0
  6  7  1  0  0  0  0
  6 33  1  0  0  0  0
  7  8  1  0  0  0  0
  7 18  2  0  0  0  0
  8  9  1  0  0  0  0
  8 17  2  0  0  0  0
  9 10  2  0  0  0  0
  9 34  1  0  0  0  0
 10 11  1  0  0  0  0
 10 35  1  0  0  0  0
 11 12  2  0  0  0  0
 11 36  1  0  0  0  0
 12 13  1  0  0  0  0
 12 17  1  0  0  0  0
 13 14  2  0  0  0  0
 13 15  1  0  0  0  0
 15 16  1  0  0  0  0
 15 37  1  0  0  0  0
 16 17  1  0  0  0  0
 16 38  1  0  0  0  0
 18 19  1  0  0  0  0
 18 39  1  0  0  0  0
 19 40  1  0  0  0  0
 20 21  1  0  0  0  0
 20 41  1  0  0  0  0
 21 22  1  0  0  0  0
 21 30  2  0  0  0  0
 22 23  2  0  0  0  0
 22 42  1  0  0  0  0
 23 24  1  0  0  0  0
 23 43  1  0  0  0  0
 24 25  2  0  0  0  0
 24 44  1  0  0  0  0
 25 26  1  0  0  0  0
 25 30  1  0  0  0  0
 26 27  1  0  0  0  0
 26 28  1  0  0  0  0
 26 29  1  0  0  0  0
 30 45  1  0  0  0  0
M  END
$$$$
