CHEMBL4742893
 OpenBabel04072215383D

 50 53  0  0  0  0  0  0  0  0999 V2000
    4.8647    7.1248    1.8583 C   0  0  0  0  0  0  0  0  0  0  0  0
    5.2617    6.9085    3.2161 O   0  0  0  0  0  0  0  0  0  0  0  0
    5.2993    5.6012    3.6242 C   0  0  0  0  0  0  0  0  0  0  0  0
    5.6010    4.5634    2.7226 C   0  0  0  0  0  0  0  0  0  0  0  0
    5.5278    3.2240    3.0700 C   0  0  0  0  0  0  0  0  0  0  0  0
    5.7256    2.3043    2.1223 N   0  0  0  0  0  0  0  0  0  0  0  0
    5.5504    1.0299    2.4809 C   0  0  0  0  0  0  0  0  0  0  0  0
    5.1989    0.5980    3.6920 N   0  0  0  0  0  0  0  0  0  0  0  0
    5.0172    1.5310    4.6460 C   0  0  0  0  0  0  0  0  0  0  0  0
    4.5742    1.1195    5.9313 N   0  0  0  0  0  0  0  0  0  0  0  0
    3.9976   -0.1301    6.2312 C   0  0  0  0  0  0  0  0  0  0  0  0
    4.2679   -0.7547    7.4466 C   0  0  0  0  0  0  0  0  0  0  0  0
    3.7776   -2.0388    7.7119 C   0  0  0  0  0  0  0  0  0  0  0  0
    2.9888   -2.7183    6.7790 C   0  0  0  0  0  0  0  0  0  0  0  0
    2.5675   -4.0633    6.9284 N   0  0  0  0  0  0  0  0  0  0  0  0
    2.9126   -4.9032    7.9723 C   0  0  0  0  0  0  0  0  0  0  0  0
    3.5408   -4.5827    8.9757 O   0  0  0  0  0  0  0  0  0  0  0  0
    2.4853   -6.3294    7.8870 C   0  0  0  0  0  0  0  0  0  0  0  0
    2.2596   -7.0058    6.6832 C   0  0  0  0  0  0  0  0  0  0  0  0
    1.9518   -8.3738    6.7052 C   0  0  0  0  0  0  0  0  0  0  0  0
    1.8784   -9.0699    7.9185 C   0  0  0  0  0  0  0  0  0  0  0  0
    1.5263  -10.7599    7.8614 Cl  0  0  0  0  0  0  0  0  0  0  0  0
    2.1050   -8.3959    9.1203 C   0  0  0  0  0  0  0  0  0  0  0  0
    2.0544   -9.1818   10.6571 Cl  0  0  0  0  0  0  0  0  0  0  0  0
    2.4045   -7.0336    9.0999 C   0  0  0  0  0  0  0  0  0  0  0  0
    2.6227   -2.0478    5.6111 C   0  0  0  0  0  0  0  0  0  0  0  0
    3.1156   -0.7647    5.3481 C   0  0  0  0  0  0  0  0  0  0  0  0
    5.1938    2.8975    4.3866 C   0  0  0  0  0  0  0  0  0  0  0  0
    5.0065    3.9322    5.3282 C   0  0  0  0  0  0  0  0  0  0  0  0
    5.0454    5.2810    4.9618 C   0  0  0  0  0  0  0  0  0  0  0  0
    4.7808    6.0905    6.0278 O   0  0  0  0  0  0  0  0  0  0  0  0
    4.6085    7.4841    5.8470 C   0  0  0  0  0  0  0  0  0  0  0  0
    4.2889    8.0539    1.8155 H   0  0  0  0  0  0  0  0  0  0  0  0
    4.2181    6.3340    1.4580 H   0  0  0  0  0  0  0  0  0  0  0  0
    5.7545    7.2407    1.2317 H   0  0  0  0  0  0  0  0  0  0  0  0
    5.8752    4.7876    1.6938 H   0  0  0  0  0  0  0  0  0  0  0  0
    5.6918    0.2752    1.7157 H   0  0  0  0  0  0  0  0  0  0  0  0
    5.2283    1.4345    6.6398 H   0  0  0  0  0  0  0  0  0  0  0  0
    4.8976   -0.2774    8.1927 H   0  0  0  0  0  0  0  0  0  0  0  0
    4.0572   -2.4828    8.6600 H   0  0  0  0  0  0  0  0  0  0  0  0
    1.9960   -4.4285    6.1794 H   0  0  0  0  0  0  0  0  0  0  0  0
    2.3608   -6.5125    5.7208 H   0  0  0  0  0  0  0  0  0  0  0  0
    1.7929   -8.9033    5.7677 H   0  0  0  0  0  0  0  0  0  0  0  0
    2.5985   -6.5123   10.0370 H   0  0  0  0  0  0  0  0  0  0  0  0
    1.9778   -2.5103    4.8693 H   0  0  0  0  0  0  0  0  0  0  0  0
    2.8259   -0.2690    4.4246 H   0  0  0  0  0  0  0  0  0  0  0  0
    4.7785    3.6923    6.3658 H   0  0  0  0  0  0  0  0  0  0  0  0
    4.1230    7.8623    6.7538 H   0  0  0  0  0  0  0  0  0  0  0  0
    3.9413    7.7234    5.0160 H   0  0  0  0  0  0  0  0  0  0  0  0
    5.5776    7.9832    5.7576 H   0  0  0  0  0  0  0  0  0  0  0  0
  1  2  1  0  0  0  0
  1 33  1  0  0  0  0
  1 34  1  0  0  0  0
  1 35  1  0  0  0  0
  2  3  1  0  0  0  0
  3  4  1  0  0  0  0
  3 30  2  0  0  0  0
  4  5  2  0  0  0  0
  4 36  1  0  0  0  0
  5  6  1  0  0  0  0
  5 28  1  0  0  0  0
  6  7  2  0  0  0  0
  7  8  1  0  0  0  0
  7 37  1  0  0  0  0
  8  9  2  0  0  0  0
  9 10  1  0  0  0  0
  9 28  1  0  0  0  0
 10 11  1  0  0  0  0
 10 38  1  0  0  0  0
 11 12  1  0  0  0  0
 11 27  2  0  0  0  0
 12 13  2  0  0  0  0
 12 39  1  0  0  0  0
 13 14  1  0  0  0  0
 13 40  1  0  0  0  0
 14 15  1  0  0  0  0
 14 26  2  0  0  0  0
 15 16  1  0  0  0  0
 15 41  1  0  0  0  0
 16 17  2  0  0  0  0
 16 18  1  0  0  0  0
 18 19  1  0  0  0  0
 18 25  2  0  0  0  0
 19 20  2  0  0  0  0
 19 42  1  0  0  0  0
 20 21  1  0  0  0  0
 20 43  1  0  0  0  0
 21 22  1  0  0  0  0
 21 23  2  0  0  0  0
 23 24  1  0  0  0  0
 23 25  1  0  0  0  0
 25 44  1  0  0  0  0
 26 27  1  0  0  0  0
 26 45  1  0  0  0  0
 27 46  1  0  0  0  0
 28 29  2  0  0  0  0
 29 30  1  0  0  0  0
 29 47  1  0  0  0  0
 30 31  1  0  0  0  0
 31 32  1  0  0  0  0
 32 48  1  0  0  0  0
 32 49  1  0  0  0  0
 32 50  1  0  0  0  0
M  END
$$$$
