CHEMBL466154
 OpenBabel04072215383D

 29 31  0  0  0  0  0  0  0  0999 V2000
    0.9695    0.1295    0.0028 C   0  0  0  0  0  0  0  0  0  0  0  0
    2.4706    0.0113    0.0043 C   0  0  0  0  0  0  0  0  0  0  0  0
    3.2313    1.1930    0.0070 C   0  0  0  0  0  0  0  0  0  0  0  0
    4.6203    1.1303    0.0081 C   0  0  0  0  0  0  0  0  0  0  0  0
    5.3778    2.2637    0.0102 O   0  0  0  0  0  0  0  0  0  0  0  0
    5.2782   -0.0924    0.0059 C   0  0  0  0  0  0  0  0  0  0  0  0
    4.5387   -1.2784    0.0029 C   0  0  0  0  0  0  0  0  0  0  0  0
    5.2766   -2.4371    0.0017 O   0  0  0  0  0  0  0  0  0  0  0  0
    4.6138   -3.6396    0.0032 C   0  0  0  0  0  0  0  0  0  0  0  0
    5.4264   -4.7798    0.0039 C   0  0  0  0  0  0  0  0  0  0  0  0
    4.8384   -6.0404    0.0058 C   0  0  0  0  0  0  0  0  0  0  0  0
    5.5853   -7.1803    0.0067 O   0  0  0  0  0  0  0  0  0  0  0  0
    3.4565   -6.1837    0.0073 C   0  0  0  0  0  0  0  0  0  0  0  0
    2.6489   -5.0472    0.0058 C   0  0  0  0  0  0  0  0  0  0  0  0
    1.2933   -5.2128    0.0077 O   0  0  0  0  0  0  0  0  0  0  0  0
    3.2245   -3.7667    0.0034 C   0  0  0  0  0  0  0  0  0  0  0  0
    2.4206   -2.5271    0.0016 C   0  0  0  0  0  0  0  0  0  0  0  0
    1.1990   -2.5601   -0.0038 O   0  0  0  0  0  0  0  0  0  0  0  0
    3.1417   -1.2344    0.0028 C   0  0  0  0  0  0  0  0  0  0  0  0
    0.6470    1.1760    0.0033 H   0  0  0  0  0  0  0  0  0  0  0  0
    0.5486   -0.3338    0.9009 H   0  0  0  0  0  0  0  0  0  0  0  0
    0.5499   -0.3321   -0.8969 H   0  0  0  0  0  0  0  0  0  0  0  0
    2.7263    2.1555    0.0076 H   0  0  0  0  0  0  0  0  0  0  0  0
    4.7878    3.0361    0.0143 H   0  0  0  0  0  0  0  0  0  0  0  0
    6.3641   -0.1194    0.0063 H   0  0  0  0  0  0  0  0  0  0  0  0
    6.5061   -4.6666    0.0033 H   0  0  0  0  0  0  0  0  0  0  0  0
    6.5269   -6.9429    0.0055 H   0  0  0  0  0  0  0  0  0  0  0  0
    3.0269   -7.1805    0.0090 H   0  0  0  0  0  0  0  0  0  0  0  0
    1.0644   -6.1547    0.0072 H   0  0  0  0  0  0  0  0  0  0  0  0
  1  2  1  0  0  0  0
  1 20  1  0  0  0  0
  1 21  1  0  0  0  0
  1 22  1  0  0  0  0
  2  3  1  0  0  0  0
  2 19  2  0  0  0  0
  3  4  2  0  0  0  0
  3 23  1  0  0  0  0
  4  5  1  0  0  0  0
  4  6  1  0  0  0  0
  5 24  1  0  0  0  0
  6  7  2  0  0  0  0
  6 25  1  0  0  0  0
  7  8  1  0  0  0  0
  7 19  1  0  0  0  0
  8  9  1  0  0  0  0
  9 10  1  0  0  0  0
  9 16  2  0  0  0  0
 10 11  2  0  0  0  0
 10 26  1  0  0  0  0
 11 12  1  0  0  0  0
 11 13  1  0  0  0  0
 12 27  1  0  0  0  0
 13 14  2  0  0  0  0
 13 28  1  0  0  0  0
 14 15  1  0  0  0  0
 14 16  1  0  0  0  0
 15 29  1  0  0  0  0
 16 17  1  0  0  0  0
 17 18  2  0  0  0  0
 17 19  1  0  0  0  0
M  END
$$$$
