CHEMBL4097955
 OpenBabel04072215383D

 53 57  0  0  0  0  0  0  0  0999 V2000
    2.8221    1.8455    1.4609 C   0  0  0  0  0  0  0  0  0  0  0  0
    2.4580    0.5085    0.9987 N   0  0  0  0  0  0  0  0  0  0  0  0
    3.3039    0.0981   -0.1342 C   0  0  0  0  0  0  0  0  0  0  0  0
    4.7765    0.0080    0.2098 C   0  0  0  0  0  0  0  0  0  0  0  0
    5.1808   -0.7911    1.2603 C   0  0  0  0  0  0  0  0  0  0  0  0
    6.5376   -0.8994    1.4748 C   0  0  0  0  0  0  0  0  0  0  0  0
    7.0873   -1.7399    2.4249 O   0  0  0  0  0  0  0  0  0  0  0  0
    6.4489   -2.9218    2.7498 C   0  0  0  0  0  0  0  0  0  0  0  0
    5.6828   -3.6734    1.8577 C   0  0  0  0  0  0  0  0  0  0  0  0
    4.9641   -4.7988    2.2741 C   0  0  0  0  0  0  0  0  0  0  0  0
    5.1233   -5.2335    3.6009 C   0  0  0  0  0  0  0  0  0  0  0  0
    5.9542   -4.5435    4.4917 C   0  0  0  0  0  0  0  0  0  0  0  0
    5.8974   -5.2116    5.7422 C   0  0  0  0  0  0  0  0  0  0  0  0
    4.9929   -6.2463    5.6159 C   0  0  0  0  0  0  0  0  0  0  0  0
    4.5051   -6.2646    4.3138 N   0  0  0  0  0  0  0  0  0  0  0  0
    3.4621   -7.1091    3.8813 C   0  0  0  0  0  0  0  0  0  0  0  0
    2.4332   -7.1593    4.5389 O   0  0  0  0  0  0  0  0  0  0  0  0
    3.8610   -7.9129    2.8329 N   0  0  0  0  0  0  0  0  0  0  0  0
    3.0188   -8.9540    2.4631 C   0  0  0  0  0  0  0  0  0  0  0  0
    1.6665   -8.8534    2.0715 C   0  0  0  0  0  0  0  0  0  0  0  0
    1.2478  -10.1555    1.9143 C   0  0  0  0  0  0  0  0  0  0  0  0
   -0.1706  -10.6612    1.5756 C   0  0  0  0  0  0  0  0  0  0  0  0
   -0.3517  -12.1575    1.5652 C   0  0  0  0  0  0  0  0  0  0  0  0
   -1.0286   -9.8565    0.6083 C   0  0  0  0  0  0  0  0  0  0  0  0
   -1.3308   -9.7969    2.0650 C   0  0  0  0  0  0  0  0  0  0  0  0
    2.3132  -10.9799    2.1381 O   0  0  0  0  0  0  0  0  0  0  0  0
    3.4457  -10.2201    2.4130 N   0  0  0  0  0  0  0  0  0  0  0  0
    6.6249   -3.3768    4.0606 C   0  0  0  0  0  0  0  0  0  0  0  0
    7.4366   -0.1707    0.7894 N   0  0  0  0  0  0  0  0  0  0  0  0
    6.9392    0.6245   -0.1664 C   0  0  0  0  0  0  0  0  0  0  0  0
    5.6493    0.7355   -0.5171 N   0  0  0  0  0  0  0  0  0  0  0  0
    2.1484    2.1474    2.2671 H   0  0  0  0  0  0  0  0  0  0  0  0
    2.7462    2.5809    0.6541 H   0  0  0  0  0  0  0  0  0  0  0  0
    3.8370    1.8695    1.8715 H   0  0  0  0  0  0  0  0  0  0  0  0
    1.4881    0.5228    0.6856 H   0  0  0  0  0  0  0  0  0  0  0  0
    3.1534    0.7732   -0.9851 H   0  0  0  0  0  0  0  0  0  0  0  0
    2.9786   -0.8962   -0.4662 H   0  0  0  0  0  0  0  0  0  0  0  0
    4.4477   -1.3181    1.8580 H   0  0  0  0  0  0  0  0  0  0  0  0
    5.5894   -3.3636    0.8171 H   0  0  0  0  0  0  0  0  0  0  0  0
    4.2839   -5.2907    1.5836 H   0  0  0  0  0  0  0  0  0  0  0  0
    6.4296   -4.9499    6.6520 H   0  0  0  0  0  0  0  0  0  0  0  0
    4.6484   -6.9756    6.3260 H   0  0  0  0  0  0  0  0  0  0  0  0
    4.8438   -8.1563    2.8085 H   0  0  0  0  0  0  0  0  0  0  0  0
    1.0808   -7.9607    1.9378 H   0  0  0  0  0  0  0  0  0  0  0  0
    0.3749  -12.6284    0.8946 H   0  0  0  0  0  0  0  0  0  0  0  0
   -1.3521  -12.4487    1.2236 H   0  0  0  0  0  0  0  0  0  0  0  0
   -0.2117  -12.5659    2.5714 H   0  0  0  0  0  0  0  0  0  0  0  0
   -1.7417  -10.3815   -0.0210 H   0  0  0  0  0  0  0  0  0  0  0  0
   -0.6038   -8.9843    0.1261 H   0  0  0  0  0  0  0  0  0  0  0  0
   -2.2222  -10.2955    2.4311 H   0  0  0  0  0  0  0  0  0  0  0  0
   -1.1333   -8.8624    2.5790 H   0  0  0  0  0  0  0  0  0  0  0  0
    7.2464   -2.8175    4.7527 H   0  0  0  0  0  0  0  0  0  0  0  0
    7.6476    1.2343   -0.7173 H   0  0  0  0  0  0  0  0  0  0  0  0
  1  2  1  0  0  0  0
  1 32  1  0  0  0  0
  1 33  1  0  0  0  0
  1 34  1  0  0  0  0
  2  3  1  0  0  0  0
  2 35  1  0  0  0  0
  3  4  1  0  0  0  0
  3 36  1  0  0  0  0
  3 37  1  0  0  0  0
  4  5  1  0  0  0  0
  4 31  2  0  0  0  0
  5  6  2  0  0  0  0
  5 38  1  0  0  0  0
  6  7  1  0  0  0  0
  6 29  1  0  0  0  0
  7  8  1  0  0  0  0
  8  9  1  0  0  0  0
  8 28  2  0  0  0  0
  9 10  2  0  0  0  0
  9 39  1  0  0  0  0
 10 11  1  0  0  0  0
 10 40  1  0  0  0  0
 11 12  2  0  0  0  0
 11 15  1  0  0  0  0
 12 13  1  0  0  0  0
 12 28  1  0  0  0  0
 13 14  2  0  0  0  0
 13 41  1  0  0  0  0
 14 15  1  0  0  0  0
 14 42  1  0  0  0  0
 15 16  1  0  0  0  0
 16 17  2  0  0  0  0
 16 18  1  0  0  0  0
 18 19  1  0  0  0  0
 18 43  1  0  0  0  0
 19 20  1  0  0  0  0
 19 27  2  0  0  0  0
 20 21  2  0  0  0  0
 20 44  1  0  0  0  0
 21 22  1  0  0  0  0
 21 26  1  0  0  0  0
 22 23  1  0  0  0  0
 22 24  1  0  0  0  0
 22 25  1  0  0  0  0
 23 45  1  0  0  0  0
 23 46  1  0  0  0  0
 23 47  1  0  0  0  0
 24 25  1  0  0  0  0
 24 48  1  0  0  0  0
 24 49  1  0  0  0  0
 25 50  1  0  0  0  0
 25 51  1  0  0  0  0
 26 27  1  0  0  0  0
 28 52  1  0  0  0  0
 29 30  2  0  0  0  0
 30 31  1  0  0  0  0
 30 53  1  0  0  0  0
M  END
$$$$
