CHEMBL3959862
 OpenBabel04072215373D

 59 63  0  0  0  0  0  0  0  0999 V2000
    2.5896    1.2714    0.3045 O   0  0  0  0  0  0  0  0  0  0  0  0
    2.2297    0.1238    0.5370 C   0  0  0  0  0  0  0  0  0  0  0  0
    0.9004   -0.2718    0.6107 N   0  0  0  0  0  0  0  0  0  0  0  0
   -0.2202    0.5820    0.4557 C   0  0  0  0  0  0  0  0  0  0  0  0
   -0.1402    1.8715   -0.0830 C   0  0  0  0  0  0  0  0  0  0  0  0
   -1.2591    2.7143   -0.1535 C   0  0  0  0  0  0  0  0  0  0  0  0
   -1.1525    4.0517   -0.7167 C   0  0  0  0  0  0  0  0  0  0  0  0
   -2.1222    4.8777   -1.3330 C   0  0  0  0  0  0  0  0  0  0  0  0
   -1.6263    6.0499   -1.7380 N   0  0  0  0  0  0  0  0  0  0  0  0
   -0.3328    5.9809   -1.3857 N   0  0  0  0  0  0  0  0  0  0  0  0
   -0.0016    4.8118   -0.7640 C   0  0  0  0  0  0  0  0  0  0  0  0
   -2.4879    2.2352    0.3101 C   0  0  0  0  0  0  0  0  0  0  0  0
   -2.6074    0.9283    0.8105 C   0  0  0  0  0  0  0  0  0  0  0  0
   -3.9399    0.3979    1.2757 C   0  0  0  0  0  0  0  0  0  0  0  0
   -4.9542    1.3006    1.1785 F   0  0  0  0  0  0  0  0  0  0  0  0
   -4.3378   -0.6908    0.5611 F   0  0  0  0  0  0  0  0  0  0  0  0
   -3.9140    0.0001    2.5775 F   0  0  0  0  0  0  0  0  0  0  0  0
   -1.4662    0.1079    0.8742 C   0  0  0  0  0  0  0  0  0  0  0  0
    3.0953   -0.9291    0.7938 N   0  0  0  0  0  0  0  0  0  0  0  0
    4.5011   -0.8319    0.9448 C   0  0  0  0  0  0  0  0  0  0  0  0
    5.1935    0.3838    0.9276 C   0  0  0  0  0  0  0  0  0  0  0  0
    6.5788    0.4357    1.1046 C   0  0  0  0  0  0  0  0  0  0  0  0
    7.3118   -0.7420    1.2434 C   0  0  0  0  0  0  0  0  0  0  0  0
    8.6842   -0.7650    1.3755 O   0  0  0  0  0  0  0  0  0  0  0  0
    9.4372    0.1476    0.6624 C   0  0  0  0  0  0  0  0  0  0  0  0
    9.0962    0.5847   -0.6152 C   0  0  0  0  0  0  0  0  0  0  0  0
    9.9011    1.5336   -1.2032 C   0  0  0  0  0  0  0  0  0  0  0  0
   11.0193    2.0105   -0.6299 N   0  0  0  0  0  0  0  0  0  0  0  0
   11.3877    1.5384    0.5726 C   0  0  0  0  0  0  0  0  0  0  0  0
   12.5841    1.9819    1.1513 N   0  0  0  0  0  0  0  0  0  0  0  0
   13.4226    2.9140    0.5688 C   0  0  0  0  0  0  0  0  0  0  0  0
   13.2565    3.5265   -0.4757 O   0  0  0  0  0  0  0  0  0  0  0  0
   14.6874    3.1398    1.3392 C   0  0  0  0  0  0  0  0  0  0  0  0
   15.6470    4.2349    0.9213 C   0  0  0  0  0  0  0  0  0  0  0  0
   16.0084    2.7985    0.6847 C   0  0  0  0  0  0  0  0  0  0  0  0
   10.6160    0.6036    1.2565 C   0  0  0  0  0  0  0  0  0  0  0  0
    6.6217   -1.9536    1.2990 C   0  0  0  0  0  0  0  0  0  0  0  0
    7.2899   -3.0991    1.4950 F   0  0  0  0  0  0  0  0  0  0  0  0
    5.2313   -2.0063    1.1507 C   0  0  0  0  0  0  0  0  0  0  0  0
    0.7197   -1.1861    0.9949 H   0  0  0  0  0  0  0  0  0  0  0  0
    0.7990    2.2403   -0.4815 H   0  0  0  0  0  0  0  0  0  0  0  0
   -3.1684    4.6687   -1.5132 H   0  0  0  0  0  0  0  0  0  0  0  0
    0.2690    6.7690   -1.6022 H   0  0  0  0  0  0  0  0  0  0  0  0
    1.0086    4.6346   -0.4210 H   0  0  0  0  0  0  0  0  0  0  0  0
   -3.3666    2.8787    0.2874 H   0  0  0  0  0  0  0  0  0  0  0  0
   -1.5669   -0.8996    1.2748 H   0  0  0  0  0  0  0  0  0  0  0  0
    2.7009   -1.8568    0.8119 H   0  0  0  0  0  0  0  0  0  0  0  0
    4.6915    1.3350    0.7819 H   0  0  0  0  0  0  0  0  0  0  0  0
    7.0629    1.4074    1.1015 H   0  0  0  0  0  0  0  0  0  0  0  0
    8.2190    0.2280   -1.1406 H   0  0  0  0  0  0  0  0  0  0  0  0
    9.6677    1.9544   -2.1762 H   0  0  0  0  0  0  0  0  0  0  0  0
   12.8630    1.5683    2.0255 H   0  0  0  0  0  0  0  0  0  0  0  0
   14.6135    2.9733    2.4090 H   0  0  0  0  0  0  0  0  0  0  0  0
   16.1786    4.7751    1.6949 H   0  0  0  0  0  0  0  0  0  0  0  0
   15.3946    4.8414    0.0565 H   0  0  0  0  0  0  0  0  0  0  0  0
   16.7892    2.3643    1.2961 H   0  0  0  0  0  0  0  0  0  0  0  0
   15.9974    2.4468   -0.3425 H   0  0  0  0  0  0  0  0  0  0  0  0
   10.9061    0.2326    2.2329 H   0  0  0  0  0  0  0  0  0  0  0  0
    4.7463   -2.9762    1.2001 H   0  0  0  0  0  0  0  0  0  0  0  0
  1  2  2  0  0  0  0
  2  3  1  0  0  0  0
  2 19  1  0  0  0  0
  3  4  1  0  0  0  0
  3 40  1  0  0  0  0
  4  5  1  0  0  0  0
  4 18  2  0  0  0  0
  5  6  2  0  0  0  0
  5 41  1  0  0  0  0
  6  7  1  0  0  0  0
  6 12  1  0  0  0  0
  7  8  1  0  0  0  0
  7 11  2  0  0  0  0
  8  9  2  0  0  0  0
  8 42  1  0  0  0  0
  9 10  1  0  0  0  0
 10 11  1  0  0  0  0
 10 43  1  0  0  0  0
 11 44  1  0  0  0  0
 12 13  2  0  0  0  0
 12 45  1  0  0  0  0
 13 14  1  0  0  0  0
 13 18  1  0  0  0  0
 14 15  1  0  0  0  0
 14 16  1  0  0  0  0
 14 17  1  0  0  0  0
 18 46  1  0  0  0  0
 19 20  1  0  0  0  0
 19 47  1  0  0  0  0
 20 21  1  0  0  0  0
 20 39  2  0  0  0  0
 21 22  2  0  0  0  0
 21 48  1  0  0  0  0
 22 23  1  0  0  0  0
 22 49  1  0  0  0  0
 23 24  1  0  0  0  0
 23 37  2  0  0  0  0
 24 25  1  0  0  0  0
 25 26  1  0  0  0  0
 25 36  2  0  0  0  0
 26 27  2  0  0  0  0
 26 50  1  0  0  0  0
 27 28  1  0  0  0  0
 27 51  1  0  0  0  0
 28 29  2  0  0  0  0
 29 30  1  0  0  0  0
 29 36  1  0  0  0  0
 30 31  1  0  0  0  0
 30 52  1  0  0  0  0
 31 32  2  0  0  0  0
 31 33  1  0  0  0  0
 33 34  1  0  0  0  0
 33 35  1  0  0  0  0
 33 53  1  0  0  0  0
 34 35  1  0  0  0  0
 34 54  1  0  0  0  0
 34 55  1  0  0  0  0
 35 56  1  0  0  0  0
 35 57  1  0  0  0  0
 36 58  1  0  0  0  0
 37 38  1  0  0  0  0
 37 39  1  0  0  0  0
 39 59  1  0  0  0  0
M  END
$$$$
