CHEMBL52513
 OpenBabel04072215383D

 61 64  0  0  0  0  0  0  0  0999 V2000
    2.7546    0.0808   -2.6833 C   0  0  0  0  0  0  0  0  0  0  0  0
    2.8599    0.0048   -1.2265 N   0  0  0  0  0  0  0  0  0  0  0  0
    3.0153   -1.5258   -0.5342 S   0  0  0  0  0  0  0  0  0  0  0  0
    2.6074   -1.3762    0.8476 O   0  0  0  0  0  0  0  0  0  0  0  0
    2.3879   -2.4845   -1.4115 O   0  0  0  0  0  0  0  0  0  0  0  0
    4.7744   -1.8137   -0.5432 C   0  0  0  0  0  0  0  0  0  0  0  0
    5.3293   -2.4071   -1.6974 C   0  0  0  0  0  0  0  0  0  0  0  0
    6.6798   -2.7393   -1.7322 C   0  0  0  0  0  0  0  0  0  0  0  0
    7.4291   -2.4728   -0.6012 C   0  0  0  0  0  0  0  0  0  0  0  0
    6.9009   -1.8977    0.5660 C   0  0  0  0  0  0  0  0  0  0  0  0
    5.5537   -1.5659    0.6077 C   0  0  0  0  0  0  0  0  0  0  0  0
    8.0393   -1.8091    1.5134 C   0  0  0  0  0  0  0  0  0  0  0  0
    8.0222   -1.3850    2.7904 C   0  0  0  0  0  0  0  0  0  0  0  0
    9.1682   -1.4284    3.6363 C   0  0  0  0  0  0  0  0  0  0  0  0
   10.0168   -0.3463    3.6605 N   0  0  0  0  0  0  0  0  0  0  0  0
   11.0774   -0.6136    4.4883 C   0  0  0  0  0  0  0  0  0  0  0  0
   10.9195   -1.8802    5.0133 C   0  0  0  0  0  0  0  0  0  0  0  0
    9.6827   -2.3975    4.4956 C   0  0  0  0  0  0  0  0  0  0  0  0
    9.0696   -3.7447    4.7424 C   0  0  0  0  0  0  0  0  0  0  0  0
    8.7979   -4.0592    6.2106 C   0  0  0  0  0  0  0  0  0  0  0  0
    7.8367   -3.0820    6.9014 C   0  0  0  0  0  0  0  0  0  0  0  0
    7.6019   -3.4498    8.3147 N   0  0  0  0  0  0  0  0  0  0  0  0
    8.8365   -3.4220    9.1044 C   0  0  0  0  0  0  0  0  0  0  0  0
    6.6181   -2.5459    8.9142 C   0  0  0  0  0  0  0  0  0  0  0  0
   11.9737   -2.5043    5.8827 C   0  0  0  0  0  0  0  0  0  0  0  0
   13.0175   -1.4749    6.3672 C   0  0  0  0  0  0  0  0  0  0  0  0
   13.4300   -0.4960    5.2570 C   0  0  0  0  0  0  0  0  0  0  0  0
   12.2237    0.3056    4.7358 C   0  0  0  0  0  0  0  0  0  0  0  0
    9.2557   -2.3335    0.7771 C   0  0  0  0  0  0  0  0  0  0  0  0
   10.4158   -2.3865    1.1344 O   0  0  0  0  0  0  0  0  0  0  0  0
    8.7843   -2.7275   -0.4606 N   0  0  0  0  0  0  0  0  0  0  0  0
    2.6885    1.1300   -2.9855 H   0  0  0  0  0  0  0  0  0  0  0  0
    1.8452   -0.4189   -3.0289 H   0  0  0  0  0  0  0  0  0  0  0  0
    3.6311   -0.3567   -3.1656 H   0  0  0  0  0  0  0  0  0  0  0  0
    2.1937    0.5651   -0.6944 H   0  0  0  0  0  0  0  0  0  0  0  0
    4.7048   -2.6233   -2.5627 H   0  0  0  0  0  0  0  0  0  0  0  0
    7.1172   -3.2001   -2.6111 H   0  0  0  0  0  0  0  0  0  0  0  0
    5.1027   -1.1426    1.5022 H   0  0  0  0  0  0  0  0  0  0  0  0
    7.0918   -1.0597    3.2470 H   0  0  0  0  0  0  0  0  0  0  0  0
    9.9081    0.4934    3.1123 H   0  0  0  0  0  0  0  0  0  0  0  0
    9.7463   -4.5093    4.3402 H   0  0  0  0  0  0  0  0  0  0  0  0
    8.1320   -3.8432    4.1821 H   0  0  0  0  0  0  0  0  0  0  0  0
    9.7553   -4.0810    6.7315 H   0  0  0  0  0  0  0  0  0  0  0  0
    8.3873   -5.0739    6.2815 H   0  0  0  0  0  0  0  0  0  0  0  0
    6.8788   -3.1132    6.3643 H   0  0  0  0  0  0  0  0  0  0  0  0
    8.2079   -2.0517    6.8324 H   0  0  0  0  0  0  0  0  0  0  0  0
    9.5257   -4.2136    8.7942 H   0  0  0  0  0  0  0  0  0  0  0  0
    8.6260   -3.6248   10.1600 H   0  0  0  0  0  0  0  0  0  0  0  0
    9.3535   -2.4584    9.0323 H   0  0  0  0  0  0  0  0  0  0  0  0
    5.6628   -2.6047    8.3818 H   0  0  0  0  0  0  0  0  0  0  0  0
    6.9565   -1.5034    8.9106 H   0  0  0  0  0  0  0  0  0  0  0  0
    6.4150   -2.8370    9.9514 H   0  0  0  0  0  0  0  0  0  0  0  0
   12.4867   -3.2833    5.3052 H   0  0  0  0  0  0  0  0  0  0  0  0
   11.5382   -2.9810    6.7640 H   0  0  0  0  0  0  0  0  0  0  0  0
   13.9010   -2.0006    6.7496 H   0  0  0  0  0  0  0  0  0  0  0  0
   12.6047   -0.9032    7.2089 H   0  0  0  0  0  0  0  0  0  0  0  0
   13.8835   -1.0628    4.4335 H   0  0  0  0  0  0  0  0  0  0  0  0
   14.1975    0.1920    5.6309 H   0  0  0  0  0  0  0  0  0  0  0  0
   12.5041    0.8457    3.8258 H   0  0  0  0  0  0  0  0  0  0  0  0
   11.9310    1.0467    5.4895 H   0  0  0  0  0  0  0  0  0  0  0  0
    9.3920   -3.1240   -1.1612 H   0  0  0  0  0  0  0  0  0  0  0  0
  1  2  1  0  0  0  0
  1 32  1  0  0  0  0
  1 33  1  0  0  0  0
  1 34  1  0  0  0  0
  2  3  1  0  0  0  0
  2 35  1  0  0  0  0
  3  4  2  0  0  0  0
  3  5  2  0  0  0  0
  3  6  1  0  0  0  0
  6  7  1  0  0  0  0
  6 11  2  0  0  0  0
  7  8  2  0  0  0  0
  7 36  1  0  0  0  0
  8  9  1  0  0  0  0
  8 37  1  0  0  0  0
  9 10  2  0  0  0  0
  9 31  1  0  0  0  0
 10 11  1  0  0  0  0
 10 12  1  0  0  0  0
 11 38  1  0  0  0  0
 12 13  2  0  0  0  0
 12 29  1  0  0  0  0
 13 14  1  0  0  0  0
 13 39  1  0  0  0  0
 14 15  1  0  0  0  0
 14 18  2  0  0  0  0
 15 16  1  0  0  0  0
 15 40  1  0  0  0  0
 16 17  2  0  0  0  0
 16 28  1  0  0  0  0
 17 18  1  0  0  0  0
 17 25  1  0  0  0  0
 18 19  1  0  0  0  0
 19 20  1  0  0  0  0
 19 41  1  0  0  0  0
 19 42  1  0  0  0  0
 20 21  1  0  0  0  0
 20 43  1  0  0  0  0
 20 44  1  0  0  0  0
 21 22  1  0  0  0  0
 21 45  1  0  0  0  0
 21 46  1  0  0  0  0
 22 23  1  0  0  0  0
 22 24  1  0  0  0  0
 23 47  1  0  0  0  0
 23 48  1  0  0  0  0
 23 49  1  0  0  0  0
 24 50  1  0  0  0  0
 24 51  1  0  0  0  0
 24 52  1  0  0  0  0
 25 26  1  0  0  0  0
 25 53  1  0  0  0  0
 25 54  1  0  0  0  0
 26 27  1  0  0  0  0
 26 55  1  0  0  0  0
 26 56  1  0  0  0  0
 27 28  1  0  0  0  0
 27 57  1  0  0  0  0
 27 58  1  0  0  0  0
 28 59  1  0  0  0  0
 28 60  1  0  0  0  0
 29 30  2  0  0  0  0
 29 31  1  0  0  0  0
 31 61  1  0  0  0  0
M  END
$$$$
