CHEMBL1762110
 OpenBabel04072215363D

 56 60  0  0  1  0  0  0  0  0999 V2000
    6.1093    4.0469  -10.4491 C   0  0  0  0  0  0  0  0  0  0  0  0
    6.1199    3.4911   -9.0517 C   0  0  0  0  0  0  0  0  0  0  0  0
    5.2749    3.7897   -8.2160 O   0  0  0  0  0  0  0  0  0  0  0  0
    7.1487    2.6037   -8.8313 N   0  0  0  0  0  0  0  0  0  0  0  0
    7.3256    1.9065   -7.5713 C   0  0  0  0  0  0  0  0  0  0  0  0
    8.3488    2.5978   -6.6476 C   0  0  1  0  0  0  0  0  0  0  0  0
    7.9403    3.9994   -6.1682 C   0  0  0  0  0  0  0  0  0  0  0  0
    6.8573    4.0191   -5.0848 C   0  0  0  0  0  0  0  0  0  0  0  0
    7.1354    3.0950   -3.8939 C   0  0  2  0  0  0  0  0  0  0  0  0
    8.1137    3.7008   -2.9024 C   0  0  0  0  0  0  0  0  0  0  0  0
    9.4335    3.5924   -2.9620 N   0  0  0  0  0  0  0  0  0  0  0  0
    9.8957    3.9732   -1.7268 C   0  0  0  0  0  0  0  0  0  0  0  0
   11.3135    3.7628   -1.3603 C   0  0  0  0  0  0  0  0  0  0  0  0
   11.8439    3.4910   -0.1203 C   0  0  0  0  0  0  0  0  0  0  0  0
   13.2168    3.1842   -0.2904 C   0  0  0  0  0  0  0  0  0  0  0  0
   14.2233    2.7480    0.5889 C   0  0  0  0  0  0  0  0  0  0  0  0
   15.4867    2.4467    0.0760 C   0  0  0  0  0  0  0  0  0  0  0  0
   15.7606    2.6188   -1.2801 C   0  0  0  0  0  0  0  0  0  0  0  0
   14.7808    3.0796   -2.1680 C   0  0  0  0  0  0  0  0  0  0  0  0
   13.5068    3.3267   -1.6468 C   0  0  0  0  0  0  0  0  0  0  0  0
   12.3318    3.6804   -2.2737 N   0  0  0  0  0  0  0  0  0  0  0  0
    8.8810    4.4997   -0.9567 C   0  0  0  0  0  0  0  0  0  0  0  0
    8.7703    5.1235    0.3387 C   0  0  0  0  0  0  0  0  0  0  0  0
    9.8104    5.3295    1.1980 N   0  0  0  0  0  0  0  0  0  0  0  0
    7.6103    5.5857    0.7548 N   0  0  0  0  0  0  0  0  0  0  0  0
    6.5198    5.4799   -0.0792 C   0  0  0  0  0  0  0  0  0  0  0  0
    6.5508    4.9051   -1.2899 C   0  0  0  0  0  0  0  0  0  0  0  0
    7.7495    4.3806   -1.7452 N   0  0  0  0  0  0  0  0  0  0  0  0
    7.5764    1.6947   -4.3802 C   0  0  0  0  0  0  0  0  0  0  0  0
    8.6882    1.7190   -5.4352 C   0  0  0  0  0  0  0  0  0  0  0  0
    5.4096    4.8851  -10.5077 H   0  0  0  0  0  0  0  0  0  0  0  0
    5.7925    3.2650  -11.1446 H   0  0  0  0  0  0  0  0  0  0  0  0
    7.1053    4.4051  -10.7242 H   0  0  0  0  0  0  0  0  0  0  0  0
    7.8515    2.4836   -9.5495 H   0  0  0  0  0  0  0  0  0  0  0  0
    7.6952    0.9092   -7.8424 H   0  0  0  0  0  0  0  0  0  0  0  0
    6.3539    1.7746   -7.0863 H   0  0  0  0  0  0  0  0  0  0  0  0
    9.2688    2.7124   -7.2382 H   0  0  0  0  0  0  0  0  0  0  0  0
    7.6165    4.6167   -7.0127 H   0  0  0  0  0  0  0  0  0  0  0  0
    8.8344    4.4953   -5.7692 H   0  0  0  0  0  0  0  0  0  0  0  0
    5.9045    3.7189   -5.5383 H   0  0  0  0  0  0  0  0  0  0  0  0
    6.7209    5.0507   -4.7385 H   0  0  0  0  0  0  0  0  0  0  0  0
    6.1878    2.9456   -3.3573 H   0  0  0  0  0  0  0  0  0  0  0  0
   11.3018    3.4014    0.8102 H   0  0  0  0  0  0  0  0  0  0  0  0
   14.0082    2.6087    1.6442 H   0  0  0  0  0  0  0  0  0  0  0  0
   16.2546    2.0620    0.7421 H   0  0  0  0  0  0  0  0  0  0  0  0
   16.7500    2.3736   -1.6584 H   0  0  0  0  0  0  0  0  0  0  0  0
   14.9971    3.1999   -3.2240 H   0  0  0  0  0  0  0  0  0  0  0  0
   12.2118    3.8239   -3.2670 H   0  0  0  0  0  0  0  0  0  0  0  0
   10.6977    5.5301    0.7498 H   0  0  0  0  0  0  0  0  0  0  0  0
    9.5737    6.0066    1.9203 H   0  0  0  0  0  0  0  0  0  0  0  0
    5.6057    5.9215    0.3081 H   0  0  0  0  0  0  0  0  0  0  0  0
    5.6823    4.8593   -1.9347 H   0  0  0  0  0  0  0  0  0  0  0  0
    6.7053    1.1866   -4.8154 H   0  0  0  0  0  0  0  0  0  0  0  0
    7.8950    1.0732   -3.5340 H   0  0  0  0  0  0  0  0  0  0  0  0
    8.9123    0.6951   -5.7595 H   0  0  0  0  0  0  0  0  0  0  0  0
    9.6127    2.0946   -4.9828 H   0  0  0  0  0  0  0  0  0  0  0  0
  1  2  1  0  0  0  0
  1 31  1  0  0  0  0
  1 32  1  0  0  0  0
  1 33  1  0  0  0  0
  2  3  2  0  0  0  0
  2  4  1  0  0  0  0
  4  5  1  0  0  0  0
  4 34  1  0  0  0  0
  5 35  1  0  0  0  0
  5 36  1  0  0  0  0
  6  7  1  0  0  0  0
  6 30  1  0  0  0  0
  6  5  1  0  0  0  0
  6 37  1  6  0  0  0
  7  8  1  0  0  0  0
  7 38  1  0  0  0  0
  7 39  1  0  0  0  0
  8  9  1  0  0  0  0
  8 40  1  0  0  0  0
  8 41  1  0  0  0  0
  9 29  1  0  0  0  0
  9 10  1  0  0  0  0
  9 42  1  1  0  0  0
 10 11  2  0  0  0  0
 10 28  1  0  0  0  0
 11 12  1  0  0  0  0
 12 13  1  0  0  0  0
 12 22  2  0  0  0  0
 13 14  2  0  0  0  0
 13 21  1  0  0  0  0
 14 15  1  0  0  0  0
 14 43  1  0  0  0  0
 15 16  1  0  0  0  0
 15 20  2  0  0  0  0
 16 17  2  0  0  0  0
 16 44  1  0  0  0  0
 17 18  1  0  0  0  0
 17 45  1  0  0  0  0
 18 19  2  0  0  0  0
 18 46  1  0  0  0  0
 19 20  1  0  0  0  0
 19 47  1  0  0  0  0
 20 21  1  0  0  0  0
 21 48  1  0  0  0  0
 22 23  1  0  0  0  0
 22 28  1  0  0  0  0
 23 24  1  0  0  0  0
 23 25  2  0  0  0  0
 24 49  1  0  0  0  0
 24 50  1  0  0  0  0
 25 26  1  0  0  0  0
 26 27  2  0  0  0  0
 26 51  1  0  0  0  0
 27 28  1  0  0  0  0
 27 52  1  0  0  0  0
 29 30  1  0  0  0  0
 29 53  1  0  0  0  0
 29 54  1  0  0  0  0
 30 55  1  0  0  0  0
 30 56  1  0  0  0  0
M  END
$$$$
