CHEMBL1976134
 OpenBabel04072215363D

 28 31  0  0  0  0  0  0  0  0999 V2000
    2.4020    0.0050    0.0025 C   0  0  0  0  0  0  0  0  0  0  0  0
    1.6519   -1.1521   -0.0138 C   0  0  0  0  0  0  0  0  0  0  0  0
    0.2810   -0.7756   -0.0102 C   0  0  0  0  0  0  0  0  0  0  0  0
   -0.9501   -1.4531   -0.0199 C   0  0  0  0  0  0  0  0  0  0  0  0
   -2.1449   -0.7099    0.0181 C   0  0  0  0  0  0  0  0  0  0  0  0
   -3.4746   -1.3675    0.0460 C   0  0  0  0  0  0  0  0  0  0  0  0
   -4.5953   -0.7795   -0.5748 C   0  0  0  0  0  0  0  0  0  0  0  0
   -5.8697   -1.3717   -0.5486 C   0  0  0  0  0  0  0  0  0  0  0  0
   -6.0273   -2.6021    0.1030 C   0  0  0  0  0  0  0  0  0  0  0  0
   -7.0872   -3.5039    0.3470 C   0  0  0  0  0  0  0  0  0  0  0  0
   -6.7003   -4.5789    1.0385 N   0  0  0  0  0  0  0  0  0  0  0  0
   -5.3884   -4.3632    1.2415 N   0  0  0  0  0  0  0  0  0  0  0  0
   -4.9249   -3.1895    0.7066 C   0  0  0  0  0  0  0  0  0  0  0  0
   -3.6522   -2.6039    0.7044 C   0  0  0  0  0  0  0  0  0  0  0  0
   -2.0015    0.6862    0.0438 C   0  0  0  0  0  0  0  0  0  0  0  0
   -0.8427    1.3992    0.0318 N   0  0  0  0  0  0  0  0  0  0  0  0
    0.2446    0.6114    0.0109 C   0  0  0  0  0  0  0  0  0  0  0  0
    1.5337    1.0681    0.0124 N   0  0  0  0  0  0  0  0  0  0  0  0
    3.4723    0.1649    0.0086 H   0  0  0  0  0  0  0  0  0  0  0  0
    2.0468   -2.1594   -0.0203 H   0  0  0  0  0  0  0  0  0  0  0  0
   -0.9562   -2.5377   -0.0575 H   0  0  0  0  0  0  0  0  0  0  0  0
   -4.4968    0.1628   -1.1111 H   0  0  0  0  0  0  0  0  0  0  0  0
   -6.7116   -0.8840   -1.0320 H   0  0  0  0  0  0  0  0  0  0  0  0
   -8.1223   -3.4184    0.0461 H   0  0  0  0  0  0  0  0  0  0  0  0
   -4.8600   -5.0605    1.7529 H   0  0  0  0  0  0  0  0  0  0  0  0
   -2.8294   -3.0962    1.2144 H   0  0  0  0  0  0  0  0  0  0  0  0
   -2.8801    1.3268    0.0913 H   0  0  0  0  0  0  0  0  0  0  0  0
    1.7794    2.0466    0.0229 H   0  0  0  0  0  0  0  0  0  0  0  0
  1  2  2  0  0  0  0
  1 18  1  0  0  0  0
  1 19  1  0  0  0  0
  2  3  1  0  0  0  0
  2 20  1  0  0  0  0
  3  4  1  0  0  0  0
  3 17  2  0  0  0  0
  4  5  2  0  0  0  0
  4 21  1  0  0  0  0
  5  6  1  0  0  0  0
  5 15  1  0  0  0  0
  6  7  1  0  0  0  0
  6 14  2  0  0  0  0
  7  8  2  0  0  0  0
  7 22  1  0  0  0  0
  8  9  1  0  0  0  0
  8 23  1  0  0  0  0
  9 10  1  0  0  0  0
  9 13  2  0  0  0  0
 10 11  2  0  0  0  0
 10 24  1  0  0  0  0
 11 12  1  0  0  0  0
 12 13  1  0  0  0  0
 12 25  1  0  0  0  0
 13 14  1  0  0  0  0
 14 26  1  0  0  0  0
 15 16  2  0  0  0  0
 15 27  1  0  0  0  0
 16 17  1  0  0  0  0
 17 18  1  0  0  0  0
 18 28  1  0  0  0  0
M  END
$$$$
