CHEMBL234697
 OpenBabel04072215363D

 50 52  0  0  0  0  0  0  0  0999 V2000
    3.6174    1.4467   -0.2496 C   0  0  0  0  0  0  0  0  0  0  0  0
    2.8293    0.1590    0.0234 C   0  0  0  0  0  0  0  0  0  0  0  0
    3.1125   -0.3379    1.4485 C   0  0  0  0  0  0  0  0  0  0  0  0
    1.4326    0.4775   -0.0326 O   0  0  0  0  0  0  0  0  0  0  0  0
    3.1436   -0.8732   -1.0563 C   0  0  0  0  0  0  0  0  0  0  0  0
    4.1999   -1.7837   -0.9223 C   0  0  0  0  0  0  0  0  0  0  0  0
    4.5177   -2.6890   -1.9429 C   0  0  0  0  0  0  0  0  0  0  0  0
    3.8347   -2.6899   -3.1669 C   0  0  0  0  0  0  0  0  0  0  0  0
    4.2272   -3.5517   -4.3100 C   0  0  0  0  0  0  0  0  0  0  0  0
    3.1805   -3.9895   -5.0487 N   0  0  0  0  0  0  0  0  0  0  0  0
    3.3998   -4.7025   -6.1668 C   0  0  0  0  0  0  0  0  0  0  0  0
    2.3257   -5.0995   -6.9548 N   0  0  0  0  0  0  0  0  0  0  0  0
    1.0037   -5.3412   -6.5607 C   0  0  0  0  0  0  0  0  0  0  0  0
   -0.0462   -5.1313   -7.4617 C   0  0  0  0  0  0  0  0  0  0  0  0
   -1.3813   -5.2352   -7.0457 C   0  0  0  0  0  0  0  0  0  0  0  0
   -1.6883   -5.5583   -5.7185 C   0  0  0  0  0  0  0  0  0  0  0  0
   -3.1141   -5.6033   -5.2247 C   0  0  0  0  0  0  0  0  0  0  0  0
   -3.7930   -6.9543   -5.4347 C   0  0  0  0  0  0  0  0  0  0  0  0
   -3.1516   -7.9881   -4.6945 O   0  0  0  0  0  0  0  0  0  0  0  0
   -0.6422   -5.8164   -4.8293 C   0  0  0  0  0  0  0  0  0  0  0  0
    0.6825   -5.6945   -5.2449 C   0  0  0  0  0  0  0  0  0  0  0  0
    4.6281   -5.0105   -6.6002 N   0  0  0  0  0  0  0  0  0  0  0  0
    5.6578   -4.6045   -5.8324 C   0  0  0  0  0  0  0  0  0  0  0  0
    5.5241   -3.8614   -4.6781 C   0  0  0  0  0  0  0  0  0  0  0  0
    6.6947   -3.4407   -3.9847 C   0  0  0  0  0  0  0  0  0  0  0  0
    7.6586   -3.1342   -3.4155 N   0  0  0  0  0  0  0  0  0  0  0  0
    2.7466   -1.8037   -3.2808 C   0  0  0  0  0  0  0  0  0  0  0  0
    2.4103   -0.9127   -2.2516 C   0  0  0  0  0  0  0  0  0  0  0  0
    3.3855    2.2130    0.4994 H   0  0  0  0  0  0  0  0  0  0  0  0
    3.3498    1.8770   -1.2221 H   0  0  0  0  0  0  0  0  0  0  0  0
    4.6991    1.2732   -0.2395 H   0  0  0  0  0  0  0  0  0  0  0  0
    2.7904    0.4012    2.1917 H   0  0  0  0  0  0  0  0  0  0  0  0
    4.1758   -0.5327    1.6224 H   0  0  0  0  0  0  0  0  0  0  0  0
    2.5528   -1.2563    1.6591 H   0  0  0  0  0  0  0  0  0  0  0  0
    1.2551    1.1488    0.6466 H   0  0  0  0  0  0  0  0  0  0  0  0
    4.8132   -1.8049   -0.0265 H   0  0  0  0  0  0  0  0  0  0  0  0
    5.3249   -3.3895   -1.7453 H   0  0  0  0  0  0  0  0  0  0  0  0
    2.6131   -5.4340   -7.8613 H   0  0  0  0  0  0  0  0  0  0  0  0
    0.1649   -4.8313   -8.4851 H   0  0  0  0  0  0  0  0  0  0  0  0
   -2.1746   -5.0233   -7.7581 H   0  0  0  0  0  0  0  0  0  0  0  0
   -3.6909   -4.8189   -5.7291 H   0  0  0  0  0  0  0  0  0  0  0  0
   -3.1218   -5.3510   -4.1562 H   0  0  0  0  0  0  0  0  0  0  0  0
   -3.8155   -7.2412   -6.4904 H   0  0  0  0  0  0  0  0  0  0  0  0
   -4.8261   -6.8966   -5.0772 H   0  0  0  0  0  0  0  0  0  0  0  0
   -2.2603   -8.0941   -5.0737 H   0  0  0  0  0  0  0  0  0  0  0  0
   -0.8463   -6.0861   -3.7948 H   0  0  0  0  0  0  0  0  0  0  0  0
    1.4692   -5.8781   -4.5172 H   0  0  0  0  0  0  0  0  0  0  0  0
    6.6373   -4.9048   -6.1993 H   0  0  0  0  0  0  0  0  0  0  0  0
    2.1460   -1.7891   -4.1908 H   0  0  0  0  0  0  0  0  0  0  0  0
    1.5679   -0.2379   -2.3975 H   0  0  0  0  0  0  0  0  0  0  0  0
  1  2  1  0  0  0  0
  1 29  1  0  0  0  0
  1 30  1  0  0  0  0
  1 31  1  0  0  0  0
  2  3  1  0  0  0  0
  2  4  1  0  0  0  0
  2  5  1  0  0  0  0
  3 32  1  0  0  0  0
  3 33  1  0  0  0  0
  3 34  1  0  0  0  0
  4 35  1  0  0  0  0
  5  6  1  0  0  0  0
  5 28  2  0  0  0  0
  6  7  2  0  0  0  0
  6 36  1  0  0  0  0
  7  8  1  0  0  0  0
  7 37  1  0  0  0  0
  8  9  1  0  0  0  0
  8 27  2  0  0  0  0
  9 10  1  0  0  0  0
  9 24  2  0  0  0  0
 10 11  2  0  0  0  0
 11 12  1  0  0  0  0
 11 22  1  0  0  0  0
 12 13  1  0  0  0  0
 12 38  1  0  0  0  0
 13 14  1  0  0  0  0
 13 21  2  0  0  0  0
 14 15  2  0  0  0  0
 14 39  1  0  0  0  0
 15 16  1  0  0  0  0
 15 40  1  0  0  0  0
 16 17  1  0  0  0  0
 16 20  2  0  0  0  0
 17 18  1  0  0  0  0
 17 41  1  0  0  0  0
 17 42  1  0  0  0  0
 18 19  1  0  0  0  0
 18 43  1  0  0  0  0
 18 44  1  0  0  0  0
 19 45  1  0  0  0  0
 20 21  1  0  0  0  0
 20 46  1  0  0  0  0
 21 47  1  0  0  0  0
 22 23  2  0  0  0  0
 23 24  1  0  0  0  0
 23 48  1  0  0  0  0
 24 25  1  0  0  0  0
 25 26  3  0  0  0  0
 27 28  1  0  0  0  0
 27 49  1  0  0  0  0
 28 50  1  0  0  0  0
M  END
$$$$
