CHEMBL509032
 OpenBabel04072215383D

 82 86  0  0  0  0  0  0  0  0999 V2000
    1.0156   -0.5443   -0.1087 C   0  0  0  0  0  0  0  0  0  0  0  0
    2.3076    0.0329    0.0391 O   0  0  0  0  0  0  0  0  0  0  0  0
    3.0792   -0.4466    1.0717 C   0  0  0  0  0  0  0  0  0  0  0  0
    2.8678   -1.6841    1.7131 C   0  0  0  0  0  0  0  0  0  0  0  0
    3.7121   -2.1434    2.7345 C   0  0  0  0  0  0  0  0  0  0  0  0
    3.5180   -3.3282    3.4409 N   0  0  0  0  0  0  0  0  0  0  0  0
    2.1877   -3.9294    3.5107 C   0  0  0  0  0  0  0  0  0  0  0  0
    2.1275   -4.7822    4.7793 C   0  0  0  0  0  0  0  0  0  0  0  0
    3.2093   -5.8913    4.8268 C   0  0  0  0  0  0  0  0  0  0  0  0
    3.0209   -7.0430    3.9101 N   0  0  0  0  0  0  0  0  0  0  0  0
    1.6310   -7.5212    3.7346 C   0  0  0  0  0  0  0  0  0  0  0  0
    1.0580   -8.3702    4.8945 C   0  0  0  0  0  0  0  0  0  0  0  0
    1.8902   -9.5581    5.1395 N   0  0  0  0  0  0  0  0  0  0  0  0
    1.3506  -10.3814    6.2172 C   0  0  0  0  0  0  0  0  0  0  0  0
    3.2700   -9.1325    5.4207 C   0  0  0  0  0  0  0  0  0  0  0  0
    3.8498   -8.2194    4.3044 C   0  0  0  0  0  0  0  0  0  0  0  0
    4.5832   -5.2115    4.5667 C   0  0  0  0  0  0  0  0  0  0  0  0
    4.5975   -4.3184    3.3245 C   0  0  0  0  0  0  0  0  0  0  0  0
    4.7927   -1.3333    3.0828 C   0  0  0  0  0  0  0  0  0  0  0  0
    5.0020   -0.1037    2.4742 C   0  0  0  0  0  0  0  0  0  0  0  0
    4.1447    0.3771    1.4775 C   0  0  0  0  0  0  0  0  0  0  0  0
    4.3013    1.6851    0.9541 N   0  0  0  0  0  0  0  0  0  0  0  0
    5.0774    2.6937    1.5264 C   0  0  0  0  0  0  0  0  0  0  0  0
    5.8513    3.4404    0.7349 N   0  0  0  0  0  0  0  0  0  0  0  0
    6.7571    4.2247    1.3654 C   0  0  0  0  0  0  0  0  0  0  0  0
    6.9154    4.2889    2.7356 C   0  0  0  0  0  0  0  0  0  0  0  0
    8.1465    5.2634    3.4279 Cl  0  0  0  0  0  0  0  0  0  0  0  0
    6.0139    3.5519    3.4821 C   0  0  0  0  0  0  0  0  0  0  0  0
    6.0636    3.5333    4.8982 N   0  0  0  0  0  0  0  0  0  0  0  0
    4.9728    3.2692    5.7637 C   0  0  0  0  0  0  0  0  0  0  0  0
    3.7223    3.8425    5.4509 C   0  0  0  0  0  0  0  0  0  0  0  0
    2.6344    3.7707    6.3228 C   0  0  0  0  0  0  0  0  0  0  0  0
    2.7618    3.1033    7.5334 C   0  0  0  0  0  0  0  0  0  0  0  0
    3.9725    2.4948    7.8618 C   0  0  0  0  0  0  0  0  0  0  0  0
    5.0718    2.5714    6.9836 C   0  0  0  0  0  0  0  0  0  0  0  0
    6.6004    1.8395    7.5484 S   0  0  0  0  0  0  0  0  0  0  0  0
    7.5703    1.9679    6.4789 O   0  0  0  0  0  0  0  0  0  0  0  0
    6.8599    2.4382    8.8456 O   0  0  0  0  0  0  0  0  0  0  0  0
    6.2758    0.0832    7.8190 C   0  0  0  0  0  0  0  0  0  0  0  0
    5.9135   -0.6531    6.5378 C   0  0  0  0  0  0  0  0  0  0  0  0
    7.4978   -0.5808    8.4628 C   0  0  0  0  0  0  0  0  0  0  0  0
    5.0903    2.7898    2.8709 N   0  0  0  0  0  0  0  0  0  0  0  0
    0.5183   -0.0481   -0.9479 H   0  0  0  0  0  0  0  0  0  0  0  0
    0.4112   -0.3768    0.7890 H   0  0  0  0  0  0  0  0  0  0  0  0
    1.0712   -1.6093   -0.3555 H   0  0  0  0  0  0  0  0  0  0  0  0
    2.0442   -2.3182    1.4097 H   0  0  0  0  0  0  0  0  0  0  0  0
    1.9809   -4.5248    2.6139 H   0  0  0  0  0  0  0  0  0  0  0  0
    1.4148   -3.1548    3.5901 H   0  0  0  0  0  0  0  0  0  0  0  0
    1.1200   -5.1834    4.9208 H   0  0  0  0  0  0  0  0  0  0  0  0
    2.2919   -4.1192    5.6413 H   0  0  0  0  0  0  0  0  0  0  0  0
    3.2112   -6.2690    5.8572 H   0  0  0  0  0  0  0  0  0  0  0  0
    1.6162   -8.1411    2.8271 H   0  0  0  0  0  0  0  0  0  0  0  0
    0.9445   -6.7025    3.5009 H   0  0  0  0  0  0  0  0  0  0  0  0
    0.0468   -8.6900    4.6144 H   0  0  0  0  0  0  0  0  0  0  0  0
    0.9696   -7.7585    5.8015 H   0  0  0  0  0  0  0  0  0  0  0  0
    0.3292  -10.7025    5.9824 H   0  0  0  0  0  0  0  0  0  0  0  0
    1.3326   -9.8545    7.1775 H   0  0  0  0  0  0  0  0  0  0  0  0
    1.9437  -11.2954    6.3359 H   0  0  0  0  0  0  0  0  0  0  0  0
    3.9118  -10.0189    5.5000 H   0  0  0  0  0  0  0  0  0  0  0  0
    3.3214   -8.6090    6.3842 H   0  0  0  0  0  0  0  0  0  0  0  0
    3.9913   -8.8310    3.4039 H   0  0  0  0  0  0  0  0  0  0  0  0
    4.8586   -7.9204    4.6050 H   0  0  0  0  0  0  0  0  0  0  0  0
    5.3971   -5.9373    4.4786 H   0  0  0  0  0  0  0  0  0  0  0  0
    4.8319   -4.5951    5.4412 H   0  0  0  0  0  0  0  0  0  0  0  0
    4.4699   -4.9070    2.4077 H   0  0  0  0  0  0  0  0  0  0  0  0
    5.5860   -3.8465    3.2622 H   0  0  0  0  0  0  0  0  0  0  0  0
    5.4654   -1.6355    3.8789 H   0  0  0  0  0  0  0  0  0  0  0  0
    5.8559    0.4792    2.8104 H   0  0  0  0  0  0  0  0  0  0  0  0
    4.2851    1.7274   -0.0551 H   0  0  0  0  0  0  0  0  0  0  0  0
    7.3894    4.8078    0.7011 H   0  0  0  0  0  0  0  0  0  0  0  0
    6.9502    3.1275    5.2142 H   0  0  0  0  0  0  0  0  0  0  0  0
    3.5987    4.4000    4.5235 H   0  0  0  0  0  0  0  0  0  0  0  0
    1.7017    4.2637    6.0595 H   0  0  0  0  0  0  0  0  0  0  0  0
    1.9255    3.0777    8.2275 H   0  0  0  0  0  0  0  0  0  0  0  0
    4.0611    2.0008    8.8269 H   0  0  0  0  0  0  0  0  0  0  0  0
    5.4413    0.0214    8.5263 H   0  0  0  0  0  0  0  0  0  0  0  0
    6.7870   -0.7718    5.8870 H   0  0  0  0  0  0  0  0  0  0  0  0
    5.1397   -0.1293    5.9720 H   0  0  0  0  0  0  0  0  0  0  0  0
    5.5389   -1.6577    6.7689 H   0  0  0  0  0  0  0  0  0  0  0  0
    8.3624   -0.5610    7.7895 H   0  0  0  0  0  0  0  0  0  0  0  0
    7.2897   -1.6279    8.7100 H   0  0  0  0  0  0  0  0  0  0  0  0
    7.7900   -0.0720    9.3870 H   0  0  0  0  0  0  0  0  0  0  0  0
  1  2  1  0  0  0  0
  1 43  1  0  0  0  0
  1 44  1  0  0  0  0
  1 45  1  0  0  0  0
  2  3  1  0  0  0  0
  3  4  1  0  0  0  0
  3 21  2  0  0  0  0
  4  5  2  0  0  0  0
  4 46  1  0  0  0  0
  5  6  1  0  0  0  0
  5 19  1  0  0  0  0
  6  7  1  0  0  0  0
  6 18  1  0  0  0  0
  7  8  1  0  0  0  0
  7 47  1  0  0  0  0
  7 48  1  0  0  0  0
  8  9  1  0  0  0  0
  8 49  1  0  0  0  0
  8 50  1  0  0  0  0
  9 10  1  0  0  0  0
  9 17  1  0  0  0  0
  9 51  1  0  0  0  0
 10 11  1  0  0  0  0
 10 16  1  0  0  0  0
 11 12  1  0  0  0  0
 11 52  1  0  0  0  0
 11 53  1  0  0  0  0
 12 13  1  0  0  0  0
 12 54  1  0  0  0  0
 12 55  1  0  0  0  0
 13 14  1  0  0  0  0
 13 15  1  0  0  0  0
 14 56  1  0  0  0  0
 14 57  1  0  0  0  0
 14 58  1  0  0  0  0
 15 16  1  0  0  0  0
 15 59  1  0  0  0  0
 15 60  1  0  0  0  0
 16 61  1  0  0  0  0
 16 62  1  0  0  0  0
 17 18  1  0  0  0  0
 17 63  1  0  0  0  0
 17 64  1  0  0  0  0
 18 65  1  0  0  0  0
 18 66  1  0  0  0  0
 19 20  2  0  0  0  0
 19 67  1  0  0  0  0
 20 21  1  0  0  0  0
 20 68  1  0  0  0  0
 21 22  1  0  0  0  0
 22 23  1  0  0  0  0
 22 69  1  0  0  0  0
 23 24  1  0  0  0  0
 23 42  2  0  0  0  0
 24 25  2  0  0  0  0
 25 26  1  0  0  0  0
 25 70  1  0  0  0  0
 26 27  1  0  0  0  0
 26 28  2  0  0  0  0
 28 29  1  0  0  0  0
 28 42  1  0  0  0  0
 29 30  1  0  0  0  0
 29 71  1  0  0  0  0
 30 31  1  0  0  0  0
 30 35  2  0  0  0  0
 31 32  2  0  0  0  0
 31 72  1  0  0  0  0
 32 33  1  0  0  0  0
 32 73  1  0  0  0  0
 33 34  2  0  0  0  0
 33 74  1  0  0  0  0
 34 35  1  0  0  0  0
 34 75  1  0  0  0  0
 35 36  1  0  0  0  0
 36 37  2  0  0  0  0
 36 38  2  0  0  0  0
 36 39  1  0  0  0  0
 39 40  1  0  0  0  0
 39 41  1  0  0  0  0
 39 76  1  0  0  0  0
 40 77  1  0  0  0  0
 40 78  1  0  0  0  0
 40 79  1  0  0  0  0
 41 80  1  0  0  0  0
 41 81  1  0  0  0  0
 41 82  1  0  0  0  0
M  END
$$$$
