CHEMBL150817
 OpenBabel04072215363D

 44 46  0  0  0  0  0  0  0  0999 V2000
    1.1295   -0.8172   -0.4599 C   0  0  0  0  0  0  0  0  0  0  0  0
    2.3796   -0.3640    0.0245 O   0  0  0  0  0  0  0  0  0  0  0  0
    2.8710   -1.1275    1.1313 C   0  0  0  0  0  0  0  0  0  0  0  0
    4.1801   -0.4631    1.5356 C   0  0  0  0  0  0  0  0  0  0  0  0
    4.8370   -1.1133    2.6042 O   0  0  0  0  0  0  0  0  0  0  0  0
    6.1908   -0.9299    2.7373 C   0  0  0  0  0  0  0  0  0  0  0  0
    6.7635   -1.9817    3.4873 C   0  0  0  0  0  0  0  0  0  0  0  0
    8.1285   -2.1139    3.7300 C   0  0  0  0  0  0  0  0  0  0  0  0
    8.5671   -3.2009    4.3927 N   0  0  0  0  0  0  0  0  0  0  0  0
    9.8927   -3.3312    4.6125 C   0  0  0  0  0  0  0  0  0  0  0  0
   10.8265   -2.3903    4.2361 C   0  0  0  0  0  0  0  0  0  0  0  0
   10.3837   -1.2406    3.5810 C   0  0  0  0  0  0  0  0  0  0  0  0
   11.3390   -0.2527    3.1915 N   0  0  0  0  0  0  0  0  0  0  0  0
   12.3825    0.2706    4.0085 C   0  0  0  0  0  0  0  0  0  0  0  0
   13.4764    0.8651    3.3624 C   0  0  0  0  0  0  0  0  0  0  0  0
   14.4560    1.5449    4.0930 C   0  0  0  0  0  0  0  0  0  0  0  0
   14.3404    1.6495    5.4780 C   0  0  0  0  0  0  0  0  0  0  0  0
   15.5171    2.5326    6.3689 Cl  0  0  0  0  0  0  0  0  0  0  0  0
   13.2643    1.0710    6.1406 C   0  0  0  0  0  0  0  0  0  0  0  0
   12.2916    0.3984    5.4051 C   0  0  0  0  0  0  0  0  0  0  0  0
   11.2323   -0.0850    6.0704 F   0  0  0  0  0  0  0  0  0  0  0  0
    8.9925   -1.1135    3.2570 C   0  0  0  0  0  0  0  0  0  0  0  0
    8.4273   -0.0602    2.5030 C   0  0  0  0  0  0  0  0  0  0  0  0
    7.0464    0.0548    2.2350 C   0  0  0  0  0  0  0  0  0  0  0  0
    6.8126    1.0868    1.3711 O   0  0  0  0  0  0  0  0  0  0  0  0
    5.7690    2.0169    1.6113 C   0  0  0  0  0  0  0  0  0  0  0  0
    0.8511   -0.1815   -1.3063 H   0  0  0  0  0  0  0  0  0  0  0  0
    0.3639   -0.7214    0.3148 H   0  0  0  0  0  0  0  0  0  0  0  0
    1.2049   -1.8512   -0.8057 H   0  0  0  0  0  0  0  0  0  0  0  0
    3.0302   -2.1721    0.8455 H   0  0  0  0  0  0  0  0  0  0  0  0
    2.1560   -1.0984    1.9629 H   0  0  0  0  0  0  0  0  0  0  0  0
    3.8875    0.5308    1.8743 H   0  0  0  0  0  0  0  0  0  0  0  0
    4.8203   -0.4014    0.6495 H   0  0  0  0  0  0  0  0  0  0  0  0
    6.1117   -2.7725    3.8597 H   0  0  0  0  0  0  0  0  0  0  0  0
   10.1940   -4.2425    5.1236 H   0  0  0  0  0  0  0  0  0  0  0  0
   11.8786   -2.5442    4.4513 H   0  0  0  0  0  0  0  0  0  0  0  0
   10.8608    0.5556    2.8028 H   0  0  0  0  0  0  0  0  0  0  0  0
   13.5641    0.8062    2.2792 H   0  0  0  0  0  0  0  0  0  0  0  0
   15.2932    2.0047    3.5735 H   0  0  0  0  0  0  0  0  0  0  0  0
   13.1513    1.1578    7.2161 H   0  0  0  0  0  0  0  0  0  0  0  0
    9.0651    0.7007    2.0630 H   0  0  0  0  0  0  0  0  0  0  0  0
    6.1669    3.0335    1.5398 H   0  0  0  0  0  0  0  0  0  0  0  0
    5.2845    1.9083    2.5854 H   0  0  0  0  0  0  0  0  0  0  0  0
    5.0511    1.9238    0.7885 H   0  0  0  0  0  0  0  0  0  0  0  0
  1  2  1  0  0  0  0
  1 27  1  0  0  0  0
  1 28  1  0  0  0  0
  1 29  1  0  0  0  0
  2  3  1  0  0  0  0
  3  4  1  0  0  0  0
  3 30  1  0  0  0  0
  3 31  1  0  0  0  0
  4  5  1  0  0  0  0
  4 32  1  0  0  0  0
  4 33  1  0  0  0  0
  5  6  1  0  0  0  0
  6  7  1  0  0  0  0
  6 24  2  0  0  0  0
  7  8  2  0  0  0  0
  7 34  1  0  0  0  0
  8  9  1  0  0  0  0
  8 22  1  0  0  0  0
  9 10  2  0  0  0  0
 10 11  1  0  0  0  0
 10 35  1  0  0  0  0
 11 12  2  0  0  0  0
 11 36  1  0  0  0  0
 12 13  1  0  0  0  0
 12 22  1  0  0  0  0
 13 14  1  0  0  0  0
 13 37  1  0  0  0  0
 14 15  1  0  0  0  0
 14 20  2  0  0  0  0
 15 16  2  0  0  0  0
 15 38  1  0  0  0  0
 16 17  1  0  0  0  0
 16 39  1  0  0  0  0
 17 18  1  0  0  0  0
 17 19  2  0  0  0  0
 19 20  1  0  0  0  0
 19 40  1  0  0  0  0
 20 21  1  0  0  0  0
 22 23  2  0  0  0  0
 23 24  1  0  0  0  0
 23 41  1  0  0  0  0
 24 25  1  0  0  0  0
 25 26  1  0  0  0  0
 26 42  1  0  0  0  0
 26 43  1  0  0  0  0
 26 44  1  0  0  0  0
M  END
$$$$
