CHEMBL377345
 OpenBabel04072215373D

 32 35  0  0  0  0  0  0  0  0999 V2000
   -3.1590    1.0358   -0.1490 O   0  0  0  0  0  0  0  0  0  0  0  0
   -2.0379    0.5383   -0.0598 C   0  0  0  0  0  0  0  0  0  0  0  0
   -0.9288    1.3392   -0.0176 N   0  0  0  0  0  0  0  0  0  0  0  0
    0.3805    0.8521   -0.0124 C   0  0  0  0  0  0  0  0  0  0  0  0
    1.4397    1.7617    0.0169 C   0  0  0  0  0  0  0  0  0  0  0  0
    2.7521    1.2946    0.0085 C   0  0  0  0  0  0  0  0  0  0  0  0
    3.0003   -0.0747   -0.0363 C   0  0  0  0  0  0  0  0  0  0  0  0
    1.9367   -0.9816   -0.0743 C   0  0  0  0  0  0  0  0  0  0  0  0
    0.6075   -0.5313   -0.0545 C   0  0  0  0  0  0  0  0  0  0  0  0
   -0.5653   -1.4310   -0.0725 C   0  0  0  0  0  0  0  0  0  0  0  0
   -0.3122   -2.7900   -0.1731 O   0  0  0  0  0  0  0  0  0  0  0  0
   -1.8262   -0.9430   -0.0269 C   0  0  0  0  0  0  0  0  0  0  0  0
   -2.9390   -1.8280    0.0840 C   0  0  0  0  0  0  0  0  0  0  0  0
   -3.0493   -3.0019    0.6832 N   0  0  0  0  0  0  0  0  0  0  0  0
   -4.3329   -3.4245    0.4615 C   0  0  0  0  0  0  0  0  0  0  0  0
   -4.9639   -4.6090    0.8637 C   0  0  0  0  0  0  0  0  0  0  0  0
   -6.2976   -4.8160    0.4924 C   0  0  0  0  0  0  0  0  0  0  0  0
   -6.9877   -3.8591   -0.2570 C   0  0  0  0  0  0  0  0  0  0  0  0
   -6.3756   -2.6636   -0.6559 C   0  0  0  0  0  0  0  0  0  0  0  0
   -5.0446   -2.4890   -0.2752 C   0  0  0  0  0  0  0  0  0  0  0  0
   -4.1473   -1.4703   -0.4745 N   0  0  0  0  0  0  0  0  0  0  0  0
   -1.1025    2.3354   -0.0249 H   0  0  0  0  0  0  0  0  0  0  0  0
    1.2573    2.8323    0.0444 H   0  0  0  0  0  0  0  0  0  0  0  0
    3.5812    1.9969    0.0332 H   0  0  0  0  0  0  0  0  0  0  0  0
    4.0248   -0.4408   -0.0459 H   0  0  0  0  0  0  0  0  0  0  0  0
    2.1818   -2.0383   -0.1265 H   0  0  0  0  0  0  0  0  0  0  0  0
    0.4635   -3.0157    0.3595 H   0  0  0  0  0  0  0  0  0  0  0  0
   -4.4180   -5.3428    1.4453 H   0  0  0  0  0  0  0  0  0  0  0  0
   -6.7976   -5.7335    0.7918 H   0  0  0  0  0  0  0  0  0  0  0  0
   -8.0226   -4.0458   -0.5356 H   0  0  0  0  0  0  0  0  0  0  0  0
   -6.9121   -1.9205   -1.2354 H   0  0  0  0  0  0  0  0  0  0  0  0
   -4.3357   -0.5853   -0.9278 H   0  0  0  0  0  0  0  0  0  0  0  0
  1  2  2  0  0  0  0
  2  3  1  0  0  0  0
  2 12  1  0  0  0  0
  3  4  1  0  0  0  0
  3 22  1  0  0  0  0
  4  5  1  0  0  0  0
  4  9  2  0  0  0  0
  5  6  2  0  0  0  0
  5 23  1  0  0  0  0
  6  7  1  0  0  0  0
  6 24  1  0  0  0  0
  7  8  2  0  0  0  0
  7 25  1  0  0  0  0
  8  9  1  0  0  0  0
  8 26  1  0  0  0  0
  9 10  1  0  0  0  0
 10 11  1  0  0  0  0
 10 12  2  0  0  0  0
 11 27  1  0  0  0  0
 12 13  1  0  0  0  0
 13 14  2  0  0  0  0
 13 21  1  0  0  0  0
 14 15  1  0  0  0  0
 15 16  1  0  0  0  0
 15 20  2  0  0  0  0
 16 17  2  0  0  0  0
 16 28  1  0  0  0  0
 17 18  1  0  0  0  0
 17 29  1  0  0  0  0
 18 19  2  0  0  0  0
 18 30  1  0  0  0  0
 19 20  1  0  0  0  0
 19 31  1  0  0  0  0
 20 21  1  0  0  0  0
 21 32  1  0  0  0  0
M  END
$$$$
