CHEMBL3690457
 OpenBabel04072215373D

 58 62  0  0  0  0  0  0  0  0999 V2000
    1.8311    0.7422    0.7624 O   0  0  0  0  0  0  0  0  0  0  0  0
    0.7660    0.3290    0.3015 C   0  0  0  0  0  0  0  0  0  0  0  0
    0.1399   -1.0105    0.7497 C   0  0  0  0  0  0  0  0  0  0  0  0
   -1.2525   -1.1550    0.3114 N   0  0  0  0  0  0  0  0  0  0  0  0
   -2.0269   -2.1364    0.8791 C   0  0  0  0  0  0  0  0  0  0  0  0
   -1.5547   -2.8210    1.9339 N   0  0  0  0  0  0  0  0  0  0  0  0
   -2.3691   -3.7334    2.5098 C   0  0  0  0  0  0  0  0  0  0  0  0
   -3.6509   -3.9942    2.0825 C   0  0  0  0  0  0  0  0  0  0  0  0
   -4.5173   -5.0147    2.6807 C   0  0  0  0  0  0  0  0  0  0  0  0
   -4.5587   -6.3791    2.1608 C   0  0  0  0  0  0  0  0  0  0  0  0
   -5.4228   -7.2651    2.6828 C   0  0  0  0  0  0  0  0  0  0  0  0
   -6.2450   -6.8976    3.7547 N   0  0  0  0  0  0  0  0  0  0  0  0
   -7.1713   -7.6270    4.5097 C   0  0  0  0  0  0  0  0  0  0  0  0
   -7.4632   -9.0727    4.4248 C   0  0  0  0  0  0  0  0  0  0  0  0
   -6.4527   -9.9782    4.0850 C   0  0  0  0  0  0  0  0  0  0  0  0
   -6.7074  -11.3373    3.9973 C   0  0  0  0  0  0  0  0  0  0  0  0
   -7.9651  -11.8328    4.3302 C   0  0  0  0  0  0  0  0  0  0  0  0
   -8.9845  -10.9790    4.7579 C   0  0  0  0  0  0  0  0  0  0  0  0
  -10.2416  -11.4706    5.2029 N   0  0  0  0  0  0  0  0  0  0  0  0
  -10.5871  -12.8051    5.3414 C   0  0  0  0  0  0  0  0  0  0  0  0
   -9.8895  -13.7804    5.0967 O   0  0  0  0  0  0  0  0  0  0  0  0
  -11.8849  -12.9836    5.7774 N   0  0  0  0  0  0  0  0  0  0  0  0
  -12.3522  -14.3654    5.9774 C   0  0  0  0  0  0  0  0  0  0  0  0
  -11.9433  -15.0391    7.2999 C   0  0  0  0  0  0  0  0  0  0  0  0
  -11.3235  -14.1782    8.1393 F   0  0  0  0  0  0  0  0  0  0  0  0
  -13.0506  -15.4874    7.9455 F   0  0  0  0  0  0  0  0  0  0  0  0
  -11.1350  -16.0996    7.1083 F   0  0  0  0  0  0  0  0  0  0  0  0
   -8.7347   -9.5951    4.7708 C   0  0  0  0  0  0  0  0  0  0  0  0
   -7.6878   -6.6843    5.3878 C   0  0  0  0  0  0  0  0  0  0  0  0
   -7.1138   -5.4508    5.2338 N   0  0  0  0  0  0  0  0  0  0  0  0
   -6.2359   -5.5982    4.2695 C   0  0  0  0  0  0  0  0  0  0  0  0
   -5.3343   -4.6528    3.6932 C   0  0  0  0  0  0  0  0  0  0  0  0
   -4.0463   -3.2457    0.9985 C   0  0  0  0  0  0  0  0  0  0  0  0
   -3.2633   -2.3321    0.3907 N   0  0  0  0  0  0  0  0  0  0  0  0
   -1.5445   -0.7211   -1.0481 C   0  0  0  0  0  0  0  0  0  0  0  0
   -1.2123    0.7704   -1.1217 C   0  0  0  0  0  0  0  0  0  0  0  0
    0.1490    1.0435   -0.6995 N   0  0  0  0  0  0  0  0  0  0  0  0
    0.2120   -1.0291    1.8433 H   0  0  0  0  0  0  0  0  0  0  0  0
    0.7540   -1.8169    0.3310 H   0  0  0  0  0  0  0  0  0  0  0  0
   -1.9331   -4.2627    3.3524 H   0  0  0  0  0  0  0  0  0  0  0  0
   -3.8957   -6.6539    1.3446 H   0  0  0  0  0  0  0  0  0  0  0  0
   -5.4995   -8.2676    2.2887 H   0  0  0  0  0  0  0  0  0  0  0  0
   -5.4323   -9.6561    3.9075 H   0  0  0  0  0  0  0  0  0  0  0  0
   -5.9250  -12.0297    3.6967 H   0  0  0  0  0  0  0  0  0  0  0  0
   -8.0992  -12.9067    4.2559 H   0  0  0  0  0  0  0  0  0  0  0  0
  -10.9357  -10.7838    5.4680 H   0  0  0  0  0  0  0  0  0  0  0  0
  -12.2660  -12.2792    6.3795 H   0  0  0  0  0  0  0  0  0  0  0  0
  -11.9908  -14.9803    5.1447 H   0  0  0  0  0  0  0  0  0  0  0  0
  -13.4451  -14.3358    5.9005 H   0  0  0  0  0  0  0  0  0  0  0  0
   -9.5251   -8.9096    5.0674 H   0  0  0  0  0  0  0  0  0  0  0  0
   -8.4324   -6.8464    6.1571 H   0  0  0  0  0  0  0  0  0  0  0  0
   -5.3510   -3.6442    4.0949 H   0  0  0  0  0  0  0  0  0  0  0  0
   -5.0355   -3.3564    0.5629 H   0  0  0  0  0  0  0  0  0  0  0  0
   -2.5892   -0.8583   -1.3463 H   0  0  0  0  0  0  0  0  0  0  0  0
   -0.9220   -1.2852   -1.7553 H   0  0  0  0  0  0  0  0  0  0  0  0
   -1.8748    1.3369   -0.4568 H   0  0  0  0  0  0  0  0  0  0  0  0
   -1.3351    1.1507   -2.1399 H   0  0  0  0  0  0  0  0  0  0  0  0
    0.5563    1.9529   -0.8756 H   0  0  0  0  0  0  0  0  0  0  0  0
  1  2  2  0  0  0  0
  2  3  1  0  0  0  0
  2 37  1  0  0  0  0
  3  4  1  0  0  0  0
  3 38  1  0  0  0  0
  3 39  1  0  0  0  0
  4  5  1  0  0  0  0
  4 35  1  0  0  0  0
  5  6  1  0  0  0  0
  5 34  2  0  0  0  0
  6  7  2  0  0  0  0
  7  8  1  0  0  0  0
  7 40  1  0  0  0  0
  8  9  1  0  0  0  0
  8 33  2  0  0  0  0
  9 10  1  0  0  0  0
  9 32  2  0  0  0  0
 10 11  2  0  0  0  0
 10 41  1  0  0  0  0
 11 12  1  0  0  0  0
 11 42  1  0  0  0  0
 12 13  1  0  0  0  0
 12 31  1  0  0  0  0
 13 14  1  0  0  0  0
 13 29  2  0  0  0  0
 14 15  1  0  0  0  0
 14 28  2  0  0  0  0
 15 16  2  0  0  0  0
 15 43  1  0  0  0  0
 16 17  1  0  0  0  0
 16 44  1  0  0  0  0
 17 18  2  0  0  0  0
 17 45  1  0  0  0  0
 18 19  1  0  0  0  0
 18 28  1  0  0  0  0
 19 20  1  0  0  0  0
 19 46  1  0  0  0  0
 20 21  2  0  0  0  0
 20 22  1  0  0  0  0
 22 23  1  0  0  0  0
 22 47  1  0  0  0  0
 23 24  1  0  0  0  0
 23 48  1  0  0  0  0
 23 49  1  0  0  0  0
 24 25  1  0  0  0  0
 24 26  1  0  0  0  0
 24 27  1  0  0  0  0
 28 50  1  0  0  0  0
 29 30  1  0  0  0  0
 29 51  1  0  0  0  0
 30 31  2  0  0  0  0
 31 32  1  0  0  0  0
 32 52  1  0  0  0  0
 33 34  1  0  0  0  0
 33 53  1  0  0  0  0
 35 36  1  0  0  0  0
 35 54  1  0  0  0  0
 35 55  1  0  0  0  0
 36 37  1  0  0  0  0
 36 56  1  0  0  0  0
 36 57  1  0  0  0  0
 37 58  1  0  0  0  0
M  END
$$$$
