CHEMBL2086736
 OpenBabel04072215363D

 44 48  0  0  0  0  0  0  0  0999 V2000
   -3.1519    0.7345   -0.0843 O   0  0  0  0  0  0  0  0  0  0  0  0
   -1.9760    0.4451   -0.1486 C   0  0  0  0  0  0  0  0  0  0  0  0
   -0.9335    1.3498   -0.0780 N   0  0  0  0  0  0  0  0  0  0  0  0
    0.2990    0.7189   -0.0707 C   0  0  0  0  0  0  0  0  0  0  0  0
    1.5235    1.3544    0.0162 C   0  0  0  0  0  0  0  0  0  0  0  0
    2.6634    0.5544   -0.0070 C   0  0  0  0  0  0  0  0  0  0  0  0
    2.5563   -0.8470   -0.1257 C   0  0  0  0  0  0  0  0  0  0  0  0
    3.8278   -1.6133   -0.1952 C   0  0  0  0  0  0  0  0  0  0  0  0
    4.8627   -1.1332   -0.6368 O   0  0  0  0  0  0  0  0  0  0  0  0
    3.7631   -2.8549    0.3245 O   0  0  0  0  0  0  0  0  0  0  0  0
    1.2912   -1.4657   -0.2181 C   0  0  0  0  0  0  0  0  0  0  0  0
    0.1498   -0.6707   -0.1648 C   0  0  0  0  0  0  0  0  0  0  0  0
   -1.3180   -0.9265   -0.2014 C   0  0  0  0  0  0  0  0  0  0  0  0
   -2.0169   -2.0879   -0.1802 C   0  0  0  0  0  0  0  0  0  0  0  0
   -1.3113   -3.3776   -0.0216 C   0  0  0  0  0  0  0  0  0  0  0  0
   -1.0217   -3.8464    1.2692 C   0  0  0  0  0  0  0  0  0  0  0  0
   -0.4101   -5.0860    1.4473 C   0  0  0  0  0  0  0  0  0  0  0  0
   -0.0749   -5.8581    0.3371 C   0  0  0  0  0  0  0  0  0  0  0  0
   -0.3534   -5.3944   -0.9502 C   0  0  0  0  0  0  0  0  0  0  0  0
   -0.9779   -4.1591   -1.1324 C   0  0  0  0  0  0  0  0  0  0  0  0
   -3.4492   -2.0837   -0.1628 C   0  0  0  0  0  0  0  0  0  0  0  0
   -4.3545   -2.1557   -1.1214 N   0  0  0  0  0  0  0  0  0  0  0  0
   -5.5794   -2.1106   -0.4839 C   0  0  0  0  0  0  0  0  0  0  0  0
   -6.8847   -2.1016   -1.0012 C   0  0  0  0  0  0  0  0  0  0  0  0
   -7.9675   -2.0038   -0.1081 C   0  0  0  0  0  0  0  0  0  0  0  0
   -7.7565   -1.9380    1.2716 C   0  0  0  0  0  0  0  0  0  0  0  0
   -6.4679   -1.9848    1.8069 C   0  0  0  0  0  0  0  0  0  0  0  0
   -5.4136   -2.0633    0.8959 C   0  0  0  0  0  0  0  0  0  0  0  0
   -4.0592   -2.0999    1.0698 N   0  0  0  0  0  0  0  0  0  0  0  0
   -1.0927    2.3444   -0.0160 H   0  0  0  0  0  0  0  0  0  0  0  0
    1.6040    2.4336    0.0934 H   0  0  0  0  0  0  0  0  0  0  0  0
    3.6468    1.0222    0.0520 H   0  0  0  0  0  0  0  0  0  0  0  0
    2.9349   -3.0817    0.7841 H   0  0  0  0  0  0  0  0  0  0  0  0
    1.2189   -2.5347   -0.3670 H   0  0  0  0  0  0  0  0  0  0  0  0
   -1.2876   -3.2594    2.1452 H   0  0  0  0  0  0  0  0  0  0  0  0
   -0.2142   -5.4578    2.4501 H   0  0  0  0  0  0  0  0  0  0  0  0
    0.3857   -6.8333    0.4742 H   0  0  0  0  0  0  0  0  0  0  0  0
   -0.1022   -6.0068   -1.8132 H   0  0  0  0  0  0  0  0  0  0  0  0
   -1.2153   -3.8181   -2.1386 H   0  0  0  0  0  0  0  0  0  0  0  0
   -7.0520   -2.1508   -2.0715 H   0  0  0  0  0  0  0  0  0  0  0  0
   -8.9824   -1.9687   -0.4965 H   0  0  0  0  0  0  0  0  0  0  0  0
   -8.6082   -1.8443    1.9418 H   0  0  0  0  0  0  0  0  0  0  0  0
   -6.2977   -1.9374    2.8770 H   0  0  0  0  0  0  0  0  0  0  0  0
   -3.5849   -2.1041    1.9572 H   0  0  0  0  0  0  0  0  0  0  0  0
  1  2  2  0  0  0  0
  2  3  1  0  0  0  0
  2 13  1  0  0  0  0
  3  4  1  0  0  0  0
  3 30  1  0  0  0  0
  4  5  1  0  0  0  0
  4 12  2  0  0  0  0
  5  6  2  0  0  0  0
  5 31  1  0  0  0  0
  6  7  1  0  0  0  0
  6 32  1  0  0  0  0
  7  8  1  0  0  0  0
  7 11  2  0  0  0  0
  8  9  2  0  0  0  0
  8 10  1  0  0  0  0
 10 33  1  0  0  0  0
 11 12  1  0  0  0  0
 11 34  1  0  0  0  0
 12 13  1  0  0  0  0
 13 14  2  3  0  0  0
 14 15  1  0  0  0  0
 14 21  1  0  0  0  0
 15 16  1  0  0  0  0
 15 20  2  0  0  0  0
 16 17  2  0  0  0  0
 16 35  1  0  0  0  0
 17 18  1  0  0  0  0
 17 36  1  0  0  0  0
 18 19  2  0  0  0  0
 18 37  1  0  0  0  0
 19 20  1  0  0  0  0
 19 38  1  0  0  0  0
 20 39  1  0  0  0  0
 21 22  2  0  0  0  0
 21 29  1  0  0  0  0
 22 23  1  0  0  0  0
 23 24  1  0  0  0  0
 23 28  2  0  0  0  0
 24 25  2  0  0  0  0
 24 40  1  0  0  0  0
 25 26  1  0  0  0  0
 25 41  1  0  0  0  0
 26 27  2  0  0  0  0
 26 42  1  0  0  0  0
 27 28  1  0  0  0  0
 27 43  1  0  0  0  0
 28 29  1  0  0  0  0
 29 44  1  0  0  0  0
M  END
$$$$
