CHEMBL365585
 OpenBabel04072215373D

 59 65  0  0  1  0  0  0  0  0999 V2000
    2.4235   -0.4654    4.0157 C   0  0  0  0  0  0  0  0  0  0  0  0
    2.9013   -1.3935    2.8930 C   0  0  0  0  0  0  0  0  0  0  0  0
    2.6611   -2.8377    3.3640 C   0  0  0  0  0  0  0  0  0  0  0  0
    4.3471   -1.2347    2.7454 O   0  0  0  0  0  0  0  0  0  0  0  0
    4.6832   -1.0721    1.3567 C   0  0  1  0  0  0  0  0  0  0  0  0
    5.9059   -1.7874    0.9559 N   0  0  0  0  0  0  0  0  0  0  0  0
    6.4149   -1.7271   -0.3740 C   0  0  0  0  0  0  0  0  0  0  0  0
    6.0561   -0.9082   -1.4534 C   0  0  0  0  0  0  0  0  0  0  0  0
    6.6948   -1.1008   -2.7004 C   0  0  0  0  0  0  0  0  0  0  0  0
    7.6609   -2.0698   -2.8596 C   0  0  0  0  0  0  0  0  0  0  0  0
    8.0287   -2.8847   -1.7923 C   0  0  0  0  0  0  0  0  0  0  0  0
    7.4060   -2.7189   -0.5342 C   0  0  0  0  0  0  0  0  0  0  0  0
    7.4678   -3.3121    0.7177 C   0  0  0  0  0  0  0  0  0  0  0  0
    8.3706   -4.3412    1.1148 C   0  0  0  0  0  0  0  0  0  0  0  0
    8.1547   -4.9407    2.3742 C   0  0  0  0  0  0  0  0  0  0  0  0
    7.0520   -4.5092    3.1598 C   0  0  0  0  0  0  0  0  0  0  0  0
    6.8988   -4.8653    4.4836 C   0  0  0  0  0  0  0  0  0  0  0  0
    6.5746   -6.0099    5.2170 C   0  0  0  0  0  0  0  0  0  0  0  0
    6.5851   -5.9204    6.6124 C   0  0  0  0  0  0  0  0  0  0  0  0
    7.0638   -4.7666    7.2338 C   0  0  0  0  0  0  0  0  0  0  0  0
    7.2746   -3.5833    6.5076 C   0  0  0  0  0  0  0  0  0  0  0  0
    6.9710   -3.6327    5.1382 C   0  0  0  0  0  0  0  0  0  0  0  0
    6.6457   -2.6518    4.1939 N   0  0  0  0  0  0  0  0  0  0  0  0
    6.6882   -3.2145    2.9401 C   0  0  0  0  0  0  0  0  0  0  0  0
    6.6426   -2.7259    1.6385 C   0  0  0  0  0  0  0  0  0  0  0  0
    9.2653   -5.8418    2.7296 C   0  0  0  0  0  0  0  0  0  0  0  0
   10.0214   -5.7985    1.4915 N   0  0  0  0  0  0  0  0  0  0  0  0
    9.5580   -4.8984    0.5268 C   0  0  0  0  0  0  0  0  0  0  0  0
   10.1984   -4.7080   -0.4996 O   0  0  0  0  0  0  0  0  0  0  0  0
    3.4237   -1.4891    0.5689 C   0  0  0  0  0  0  0  0  0  0  0  0
    2.2740   -1.1163    1.4963 C   0  0  1  0  0  0  0  0  0  0  0  0
    1.1103   -1.9188    1.2325 O   0  0  0  0  0  0  0  0  0  0  0  0
    1.8046    0.3351    1.2362 C   0  0  0  0  0  0  0  0  0  0  0  0
    0.6478    0.6463    2.0181 O   0  0  0  0  0  0  0  0  0  0  0  0
    2.9349   -0.6952    4.9571 H   0  0  0  0  0  0  0  0  0  0  0  0
    1.3410   -0.5670    4.1932 H   0  0  0  0  0  0  0  0  0  0  0  0
    2.6504    0.5844    3.8037 H   0  0  0  0  0  0  0  0  0  0  0  0
    3.2985   -3.0776    4.2232 H   0  0  0  0  0  0  0  0  0  0  0  0
    2.9080   -3.5643    2.5832 H   0  0  0  0  0  0  0  0  0  0  0  0
    1.6173   -2.9927    3.6590 H   0  0  0  0  0  0  0  0  0  0  0  0
    4.8951   -0.0126    1.2006 H   0  0  0  0  0  0  0  0  0  0  0  0
    5.3055   -0.1310   -1.3710 H   0  0  0  0  0  0  0  0  0  0  0  0
    6.4208   -0.4809   -3.5494 H   0  0  0  0  0  0  0  0  0  0  0  0
    8.1497   -2.2033   -3.8316 H   0  0  0  0  0  0  0  0  0  0  0  0
    8.7851   -3.6525   -1.9466 H   0  0  0  0  0  0  0  0  0  0  0  0
    6.2024   -6.9024    4.7190 H   0  0  0  0  0  0  0  0  0  0  0  0
    6.2257   -6.7546    7.2110 H   0  0  0  0  0  0  0  0  0  0  0  0
    7.2053   -4.7652    8.3121 H   0  0  0  0  0  0  0  0  0  0  0  0
    7.6013   -2.6747    6.9989 H   0  0  0  0  0  0  0  0  0  0  0  0
    6.5012   -1.6765    4.3975 H   0  0  0  0  0  0  0  0  0  0  0  0
    8.9681   -6.8639    2.9541 H   0  0  0  0  0  0  0  0  0  0  0  0
    9.8943   -5.4117    3.5206 H   0  0  0  0  0  0  0  0  0  0  0  0
   10.9110   -6.2504    1.3547 H   0  0  0  0  0  0  0  0  0  0  0  0
    3.4284   -2.5703    0.3729 H   0  0  0  0  0  0  0  0  0  0  0  0
    3.3506   -1.0002   -0.4053 H   0  0  0  0  0  0  0  0  0  0  0  0
    1.3758   -2.8502    1.1327 H   0  0  0  0  0  0  0  0  0  0  0  0
    1.4892    0.4476    0.1917 H   0  0  0  0  0  0  0  0  0  0  0  0
    2.5778    1.0789    1.4407 H   0  0  0  0  0  0  0  0  0  0  0  0
    0.0626   -0.1342    1.9381 H   0  0  0  0  0  0  0  0  0  0  0  0
  1  2  1  0  0  0  0
  1 35  1  0  0  0  0
  1 36  1  0  0  0  0
  1 37  1  0  0  0  0
  2  3  1  0  0  0  0
  2  4  1  0  0  0  0
  2 31  1  0  0  0  0
  3 38  1  0  0  0  0
  3 39  1  0  0  0  0
  3 40  1  0  0  0  0
  4  5  1  0  0  0  0
  5  6  1  0  0  0  0
  5 30  1  0  0  0  0
  5 41  1  6  0  0  0
  6  7  1  0  0  0  0
  6 25  1  0  0  0  0
  7  8  1  0  0  0  0
  7 12  2  0  0  0  0
  8  9  2  0  0  0  0
  8 42  1  0  0  0  0
  9 10  1  0  0  0  0
  9 43  1  0  0  0  0
 10 11  2  0  0  0  0
 10 44  1  0  0  0  0
 11 12  1  0  0  0  0
 11 45  1  0  0  0  0
 12 13  1  0  0  0  0
 13 14  1  0  0  0  0
 13 25  2  0  0  0  0
 14 15  2  0  0  0  0
 14 28  1  0  0  0  0
 15 16  1  0  0  0  0
 15 26  1  0  0  0  0
 16 17  1  0  0  0  0
 16 24  2  0  0  0  0
 17 18  1  0  0  0  0
 17 22  2  0  0  0  0
 18 19  2  0  0  0  0
 18 46  1  0  0  0  0
 19 20  1  0  0  0  0
 19 47  1  0  0  0  0
 20 21  2  0  0  0  0
 20 48  1  0  0  0  0
 21 22  1  0  0  0  0
 21 49  1  0  0  0  0
 22 23  1  0  0  0  0
 23 24  1  0  0  0  0
 23 50  1  0  0  0  0
 24 25  1  0  0  0  0
 26 27  1  0  0  0  0
 26 51  1  0  0  0  0
 26 52  1  0  0  0  0
 27 28  1  0  0  0  0
 27 53  1  0  0  0  0
 28 29  2  0  0  0  0
 30 31  1  0  0  0  0
 30 54  1  0  0  0  0
 30 55  1  0  0  0  0
 31 32  1  6  0  0  0
 31 33  1  0  0  0  0
 32 56  1  0  0  0  0
 33 34  1  0  0  0  0
 33 57  1  0  0  0  0
 33 58  1  0  0  0  0
 34 59  1  0  0  0  0
M  END
$$$$
