CHEMBL3754301
 OpenBabel04072215373D

 40 42  0  0  0  0  0  0  0  0999 V2000
    0.4309    2.4085    0.0555 C   0  0  0  0  0  0  0  0  0  0  0  0
   -0.0735    1.0726    0.2392 N   0  0  0  0  0  0  0  0  0  0  0  0
    0.5883    0.0209    0.8001 C   0  0  0  0  0  0  0  0  0  0  0  0
   -0.1767   -1.0473    0.8662 N   0  0  0  0  0  0  0  0  0  0  0  0
   -1.3678   -0.6787    0.2840 C   0  0  0  0  0  0  0  0  0  0  0  0
   -2.4885   -1.5820    0.0971 C   0  0  0  0  0  0  0  0  0  0  0  0
   -3.3748   -1.4002   -0.9685 C   0  0  0  0  0  0  0  0  0  0  0  0
   -4.4081   -2.3041   -1.2435 C   0  0  0  0  0  0  0  0  0  0  0  0
   -5.2210   -2.1899   -2.4079 N   0  0  0  0  0  0  0  0  0  0  0  0
   -4.8200   -1.4922   -3.5405 C   0  0  0  0  0  0  0  0  0  0  0  0
   -3.7249   -0.9512   -3.6486 O   0  0  0  0  0  0  0  0  0  0  0  0
   -5.7758   -1.4651   -4.5405 N   0  0  0  0  0  0  0  0  0  0  0  0
   -5.5584   -0.8513   -5.8088 C   0  0  0  0  0  0  0  0  0  0  0  0
   -4.2834   -0.5650   -6.3011 C   0  0  0  0  0  0  0  0  0  0  0  0
   -4.1562    0.1229   -7.4938 C   0  0  0  0  0  0  0  0  0  0  0  0
   -5.2045    0.5074   -8.2451 N   0  0  0  0  0  0  0  0  0  0  0  0
   -6.4271    0.1817   -7.7760 C   0  0  0  0  0  0  0  0  0  0  0  0
   -6.6546   -0.4916   -6.5809 C   0  0  0  0  0  0  0  0  0  0  0  0
   -4.6164   -3.3647   -0.3582 C   0  0  0  0  0  0  0  0  0  0  0  0
   -3.7452   -3.5646    0.7347 C   0  0  0  0  0  0  0  0  0  0  0  0
   -3.9099   -4.7334    1.6726 C   0  0  0  0  0  0  0  0  0  0  0  0
   -4.9356   -5.5621    1.3275 F   0  0  0  0  0  0  0  0  0  0  0  0
   -2.8010   -5.5213    1.7310 F   0  0  0  0  0  0  0  0  0  0  0  0
   -4.1628   -4.3444    2.9528 F   0  0  0  0  0  0  0  0  0  0  0  0
   -2.6763   -2.6735    0.9425 C   0  0  0  0  0  0  0  0  0  0  0  0
   -1.3215    0.6433   -0.1082 C   0  0  0  0  0  0  0  0  0  0  0  0
    1.4708    2.4589    0.3855 H   0  0  0  0  0  0  0  0  0  0  0  0
   -0.1830    3.0891    0.6521 H   0  0  0  0  0  0  0  0  0  0  0  0
    0.3615    2.6660   -1.0046 H   0  0  0  0  0  0  0  0  0  0  0  0
    1.6123    0.0824    1.1446 H   0  0  0  0  0  0  0  0  0  0  0  0
   -3.2160   -0.5385   -1.6073 H   0  0  0  0  0  0  0  0  0  0  0  0
   -5.9536   -2.8718   -2.5287 H   0  0  0  0  0  0  0  0  0  0  0  0
   -6.7306   -1.6336   -4.2654 H   0  0  0  0  0  0  0  0  0  0  0  0
   -3.3721   -0.8557   -5.7912 H   0  0  0  0  0  0  0  0  0  0  0  0
   -3.1739    0.3903   -7.8733 H   0  0  0  0  0  0  0  0  0  0  0  0
   -7.2523    0.5032   -8.4049 H   0  0  0  0  0  0  0  0  0  0  0  0
   -7.6729   -0.7042   -6.2771 H   0  0  0  0  0  0  0  0  0  0  0  0
   -5.4254   -4.0720   -0.5279 H   0  0  0  0  0  0  0  0  0  0  0  0
   -1.9826   -2.8337    1.7690 H   0  0  0  0  0  0  0  0  0  0  0  0
   -2.0429    1.2889   -0.5896 H   0  0  0  0  0  0  0  0  0  0  0  0
  1  2  1  0  0  0  0
  1 27  1  0  0  0  0
  1 28  1  0  0  0  0
  1 29  1  0  0  0  0
  2  3  1  0  0  0  0
  2 26  1  0  0  0  0
  3  4  2  0  0  0  0
  3 30  1  0  0  0  0
  4  5  1  0  0  0  0
  5  6  1  0  0  0  0
  5 26  2  0  0  0  0
  6  7  1  0  0  0  0
  6 25  2  0  0  0  0
  7  8  2  0  0  0  0
  7 31  1  0  0  0  0
  8  9  1  0  0  0  0
  8 19  1  0  0  0  0
  9 10  1  0  0  0  0
  9 32  1  0  0  0  0
 10 11  2  0  0  0  0
 10 12  1  0  0  0  0
 12 13  1  0  0  0  0
 12 33  1  0  0  0  0
 13 14  1  0  0  0  0
 13 18  2  0  0  0  0
 14 15  2  0  0  0  0
 14 34  1  0  0  0  0
 15 16  1  0  0  0  0
 15 35  1  0  0  0  0
 16 17  2  0  0  0  0
 17 18  1  0  0  0  0
 17 36  1  0  0  0  0
 18 37  1  0  0  0  0
 19 20  2  0  0  0  0
 19 38  1  0  0  0  0
 20 21  1  0  0  0  0
 20 25  1  0  0  0  0
 21 22  1  0  0  0  0
 21 23  1  0  0  0  0
 21 24  1  0  0  0  0
 25 39  1  0  0  0  0
 26 40  1  0  0  0  0
M  END
$$$$
