CHEMBL3957826
 OpenBabel04072215373D

 57 59  0  0  0  0  0  0  0  0999 V2000
    3.1972   -3.6136   -3.0492 C   0  0  0  0  0  0  0  0  0  0  0  0
    4.3531   -3.0381   -2.4181 N   0  0  0  0  0  0  0  0  0  0  0  0
    4.4102   -1.6961   -2.1055 C   0  0  0  0  0  0  0  0  0  0  0  0
    3.4916   -0.9108   -2.3329 O   0  0  0  0  0  0  0  0  0  0  0  0
    5.6774   -1.2365   -1.4513 C   0  0  0  0  0  0  0  0  0  0  0  0
    5.7875    0.0865   -1.0453 C   0  0  0  0  0  0  0  0  0  0  0  0
    6.9829    0.5049   -0.4610 C   0  0  0  0  0  0  0  0  0  0  0  0
    7.2160    1.7942   -0.0119 O   0  0  0  0  0  0  0  0  0  0  0  0
    6.6885    2.8519   -0.7255 C   0  0  0  0  0  0  0  0  0  0  0  0
    6.3545    4.0199   -0.0327 C   0  0  0  0  0  0  0  0  0  0  0  0
    5.7292    5.0841   -0.7087 C   0  0  0  0  0  0  0  0  0  0  0  0
    5.4526    4.9857   -2.0814 C   0  0  0  0  0  0  0  0  0  0  0  0
    4.7579    6.0515   -2.8666 C   0  0  0  0  0  0  0  0  0  0  0  0
    4.9888    6.1949   -4.0604 O   0  0  0  0  0  0  0  0  0  0  0  0
    3.7492    6.8845   -2.1557 C   0  0  0  0  0  0  0  0  0  0  0  0
    3.3273    8.0480   -2.6816 C   0  0  0  0  0  0  0  0  0  0  0  0
    2.3758    8.9487   -2.0057 C   0  0  0  0  0  0  0  0  0  0  0  0
    2.4695   10.3318   -2.2073 C   0  0  0  0  0  0  0  0  0  0  0  0
    1.5809   11.2318   -1.5848 C   0  0  0  0  0  0  0  0  0  0  0  0
    1.6564   12.5877   -1.7742 O   0  0  0  0  0  0  0  0  0  0  0  0
    2.6617   13.1154   -2.6300 C   0  0  0  0  0  0  0  0  0  0  0  0
    0.5602   10.7380   -0.7397 C   0  0  0  0  0  0  0  0  0  0  0  0
   -0.3291   11.4905   -0.0162 O   0  0  0  0  0  0  0  0  0  0  0  0
   -0.2981   12.9070   -0.0666 C   0  0  0  0  0  0  0  0  0  0  0  0
    0.4344    9.3415   -0.5805 C   0  0  0  0  0  0  0  0  0  0  0  0
   -0.4985    8.6697    0.1746 O   0  0  0  0  0  0  0  0  0  0  0  0
   -1.7933    9.2529    0.2741 C   0  0  0  0  0  0  0  0  0  0  0  0
    1.3485    8.4713   -1.1916 C   0  0  0  0  0  0  0  0  0  0  0  0
    5.8811    3.8509   -2.7723 C   0  0  0  0  0  0  0  0  0  0  0  0
    6.5125    2.8077   -2.1082 C   0  0  0  0  0  0  0  0  0  0  0  0
    8.0030   -0.4217   -0.2686 C   0  0  0  0  0  0  0  0  0  0  0  0
    7.7998   -1.7245   -0.7020 C   0  0  0  0  0  0  0  0  0  0  0  0
    6.6643   -2.1612   -1.2927 N   0  0  0  0  0  0  0  0  0  0  0  0
    3.3567   -4.6854   -3.1833 H   0  0  0  0  0  0  0  0  0  0  0  0
    3.0382   -3.1358   -4.0205 H   0  0  0  0  0  0  0  0  0  0  0  0
    2.3203   -3.4401   -2.4186 H   0  0  0  0  0  0  0  0  0  0  0  0
    5.1297   -3.6185   -2.1124 H   0  0  0  0  0  0  0  0  0  0  0  0
    4.9598    0.7675   -1.2116 H   0  0  0  0  0  0  0  0  0  0  0  0
    6.5636    4.1056    1.0306 H   0  0  0  0  0  0  0  0  0  0  0  0
    5.4773    5.9831   -0.1505 H   0  0  0  0  0  0  0  0  0  0  0  0
    3.3757    6.5151   -1.2080 H   0  0  0  0  0  0  0  0  0  0  0  0
    3.7196    8.3884   -3.6390 H   0  0  0  0  0  0  0  0  0  0  0  0
    3.2628   10.6971   -2.8528 H   0  0  0  0  0  0  0  0  0  0  0  0
    2.4976   14.1968   -2.7010 H   0  0  0  0  0  0  0  0  0  0  0  0
    2.5851   12.7051   -3.6376 H   0  0  0  0  0  0  0  0  0  0  0  0
    3.6569   12.9571   -2.2009 H   0  0  0  0  0  0  0  0  0  0  0  0
   -1.0629   13.2776    0.6239 H   0  0  0  0  0  0  0  0  0  0  0  0
   -0.5646   13.2718   -1.0636 H   0  0  0  0  0  0  0  0  0  0  0  0
    0.6604   13.3041    0.2816 H   0  0  0  0  0  0  0  0  0  0  0  0
   -2.4882    8.4658    0.5842 H   0  0  0  0  0  0  0  0  0  0  0  0
   -2.1475    9.6454   -0.6856 H   0  0  0  0  0  0  0  0  0  0  0  0
   -1.8138   10.0153    1.0572 H   0  0  0  0  0  0  0  0  0  0  0  0
    1.2223    7.4035   -1.0303 H   0  0  0  0  0  0  0  0  0  0  0  0
    5.7038    3.7592   -3.8470 H   0  0  0  0  0  0  0  0  0  0  0  0
    6.8285    1.9430   -2.6858 H   0  0  0  0  0  0  0  0  0  0  0  0
    8.9384   -0.1350    0.1993 H   0  0  0  0  0  0  0  0  0  0  0  0
    8.5744   -2.4773   -0.5780 H   0  0  0  0  0  0  0  0  0  0  0  0
  1  2  1  0  0  0  0
  1 34  1  0  0  0  0
  1 35  1  0  0  0  0
  1 36  1  0  0  0  0
  2  3  1  0  0  0  0
  2 37  1  0  0  0  0
  3  4  2  0  0  0  0
  3  5  1  0  0  0  0
  5  6  1  0  0  0  0
  5 33  2  0  0  0  0
  6  7  2  0  0  0  0
  6 38  1  0  0  0  0
  7  8  1  0  0  0  0
  7 31  1  0  0  0  0
  8  9  1  0  0  0  0
  9 10  1  0  0  0  0
  9 30  2  0  0  0  0
 10 11  2  0  0  0  0
 10 39  1  0  0  0  0
 11 12  1  0  0  0  0
 11 40  1  0  0  0  0
 12 13  1  0  0  0  0
 12 29  2  0  0  0  0
 13 14  2  0  0  0  0
 13 15  1  0  0  0  0
 15 16  2  0  0  0  0
 15 41  1  0  0  0  0
 16 17  1  0  0  0  0
 16 42  1  0  0  0  0
 17 18  1  0  0  0  0
 17 28  2  0  0  0  0
 18 19  2  0  0  0  0
 18 43  1  0  0  0  0
 19 20  1  0  0  0  0
 19 22  1  0  0  0  0
 20 21  1  0  0  0  0
 21 44  1  0  0  0  0
 21 45  1  0  0  0  0
 21 46  1  0  0  0  0
 22 23  1  0  0  0  0
 22 25  2  0  0  0  0
 23 24  1  0  0  0  0
 24 47  1  0  0  0  0
 24 48  1  0  0  0  0
 24 49  1  0  0  0  0
 25 26  1  0  0  0  0
 25 28  1  0  0  0  0
 26 27  1  0  0  0  0
 27 50  1  0  0  0  0
 27 51  1  0  0  0  0
 27 52  1  0  0  0  0
 28 53  1  0  0  0  0
 29 30  1  0  0  0  0
 29 54  1  0  0  0  0
 30 55  1  0  0  0  0
 31 32  2  0  0  0  0
 31 56  1  0  0  0  0
 32 33  1  0  0  0  0
 32 57  1  0  0  0  0
M  END
$$$$
