CHEMBL3980166
 OpenBabel04072215373D

 71 74  0  0  0  0  0  0  0  0999 V2000
   -8.2528   16.3089    2.0525 C   0  0  0  0  0  0  0  0  0  0  0  0
   -7.9452   15.0513    1.2914 C   0  0  0  0  0  0  0  0  0  0  0  0
   -7.5480   15.1344   -0.0465 C   0  0  0  0  0  0  0  0  0  0  0  0
   -7.2238   13.9787   -0.7452 C   0  0  0  0  0  0  0  0  0  0  0  0
   -7.3098   12.7368   -0.1231 C   0  0  0  0  0  0  0  0  0  0  0  0
   -6.8475   11.6991   -0.8293 F   0  0  0  0  0  0  0  0  0  0  0  0
   -7.7682   12.6067    1.1973 C   0  0  0  0  0  0  0  0  0  0  0  0
   -7.9669   11.3680    1.8653 N   0  0  0  0  0  0  0  0  0  0  0  0
   -8.0735   10.1256    1.2618 C   0  0  0  0  0  0  0  0  0  0  0  0
   -8.0193    9.9075    0.0576 O   0  0  0  0  0  0  0  0  0  0  0  0
   -8.3345    9.1151    2.1774 N   0  0  0  0  0  0  0  0  0  0  0  0
   -8.4852    7.7832    1.7007 C   0  0  0  0  0  0  0  0  0  0  0  0
   -7.5256    7.1777    0.8806 C   0  0  0  0  0  0  0  0  0  0  0  0
   -7.7375    5.8820    0.3930 C   0  0  0  0  0  0  0  0  0  0  0  0
   -8.9120    5.1922    0.7096 C   0  0  0  0  0  0  0  0  0  0  0  0
   -9.0500    3.9359    0.1591 O   0  0  0  0  0  0  0  0  0  0  0  0
   -9.7219    2.9540    0.8612 C   0  0  0  0  0  0  0  0  0  0  0  0
   -9.6816    2.8432    2.2524 C   0  0  0  0  0  0  0  0  0  0  0  0
  -10.3980    1.8359    2.8667 C   0  0  0  0  0  0  0  0  0  0  0  0
  -11.1107    0.8932    2.2280 N   0  0  0  0  0  0  0  0  0  0  0  0
  -11.0967    0.9571    0.8699 C   0  0  0  0  0  0  0  0  0  0  0  0
  -11.7566    0.0347    0.0094 C   0  0  0  0  0  0  0  0  0  0  0  0
  -11.5980    0.3308   -1.3304 C   0  0  0  0  0  0  0  0  0  0  0  0
  -12.1659   -0.4072   -2.4528 C   0  0  0  0  0  0  0  0  0  0  0  0
  -12.8983   -1.3851   -2.3029 O   0  0  0  0  0  0  0  0  0  0  0  0
  -11.8443    0.0528   -3.7139 N   0  0  0  0  0  0  0  0  0  0  0  0
  -12.3520   -0.5562   -4.9297 C   0  0  0  0  0  0  0  0  0  0  0  0
  -13.7335   -0.0204   -5.3277 C   0  0  0  0  0  0  0  0  0  0  0  0
  -14.2038   -0.5509   -6.5933 N   0  0  0  0  0  0  0  0  0  0  0  0
  -13.8380    0.0156   -7.7783 C   0  0  0  0  0  0  0  0  0  0  0  0
  -13.0720    0.9585   -7.8663 O   0  0  0  0  0  0  0  0  0  0  0  0
  -14.4541   -0.6130   -8.8161 O   0  0  0  0  0  0  0  0  0  0  0  0
  -14.2515   -0.1092  -10.1670 C   0  0  0  0  0  0  0  0  0  0  0  0
  -12.7820   -0.2309  -10.5888 C   0  0  0  0  0  0  0  0  0  0  0  0
  -15.0904   -1.0021  -11.0993 C   0  0  0  0  0  0  0  0  0  0  0  0
  -14.7773    1.3271  -10.3011 C   0  0  0  0  0  0  0  0  0  0  0  0
  -10.6265    1.7272   -1.5348 S   0  0  0  0  0  0  0  0  0  0  0  0
  -10.4260    1.9543    0.1617 C   0  0  0  0  0  0  0  0  0  0  0  0
   -9.8899    5.8150    1.4884 C   0  0  0  0  0  0  0  0  0  0  0  0
   -9.6470    7.0800    2.0146 C   0  0  0  0  0  0  0  0  0  0  0  0
  -10.5822    7.6577    2.7851 F   0  0  0  0  0  0  0  0  0  0  0  0
   -8.0540   13.7866    1.9067 C   0  0  0  0  0  0  0  0  0  0  0  0
   -8.1029   17.1971    1.4272 H   0  0  0  0  0  0  0  0  0  0  0  0
   -7.5890   16.4000    2.9175 H   0  0  0  0  0  0  0  0  0  0  0  0
   -9.2944   16.3092    2.3857 H   0  0  0  0  0  0  0  0  0  0  0  0
   -7.4681   16.0944   -0.5492 H   0  0  0  0  0  0  0  0  0  0  0  0
   -6.8834   14.0254   -1.7751 H   0  0  0  0  0  0  0  0  0  0  0  0
   -8.1663   11.4074    2.8559 H   0  0  0  0  0  0  0  0  0  0  0  0
   -9.0104    9.3749    2.8842 H   0  0  0  0  0  0  0  0  0  0  0  0
   -6.6185    7.7109    0.6043 H   0  0  0  0  0  0  0  0  0  0  0  0
   -6.9887    5.4214   -0.2480 H   0  0  0  0  0  0  0  0  0  0  0  0
   -9.1152    3.5378    2.8631 H   0  0  0  0  0  0  0  0  0  0  0  0
  -10.4159    1.7626    3.9518 H   0  0  0  0  0  0  0  0  0  0  0  0
  -12.3309   -0.8118    0.3665 H   0  0  0  0  0  0  0  0  0  0  0  0
  -11.2770    0.8894   -3.7876 H   0  0  0  0  0  0  0  0  0  0  0  0
  -12.4001   -1.6432   -4.7954 H   0  0  0  0  0  0  0  0  0  0  0  0
  -11.6179   -0.3535   -5.7169 H   0  0  0  0  0  0  0  0  0  0  0  0
  -13.6874    1.0734   -5.4054 H   0  0  0  0  0  0  0  0  0  0  0  0
  -14.4818   -0.2602   -4.5650 H   0  0  0  0  0  0  0  0  0  0  0  0
  -14.8154   -1.3542   -6.6252 H   0  0  0  0  0  0  0  0  0  0  0  0
  -12.4377   -1.2673  -10.4945 H   0  0  0  0  0  0  0  0  0  0  0  0
  -12.1169    0.3734   -9.9665 H   0  0  0  0  0  0  0  0  0  0  0  0
  -12.6379    0.0895  -11.6260 H   0  0  0  0  0  0  0  0  0  0  0  0
  -14.7810   -2.0506  -11.0299 H   0  0  0  0  0  0  0  0  0  0  0  0
  -14.9963   -0.6854  -12.1443 H   0  0  0  0  0  0  0  0  0  0  0  0
  -16.1517   -0.9699  -10.8276 H   0  0  0  0  0  0  0  0  0  0  0  0
  -14.2345    2.0318   -9.6658 H   0  0  0  0  0  0  0  0  0  0  0  0
  -15.8292    1.3820   -9.9969 H   0  0  0  0  0  0  0  0  0  0  0  0
  -14.6955    1.6861  -11.3324 H   0  0  0  0  0  0  0  0  0  0  0  0
  -10.8433    5.3402    1.6917 H   0  0  0  0  0  0  0  0  0  0  0  0
   -8.3866   13.7384    2.9418 H   0  0  0  0  0  0  0  0  0  0  0  0
  1  2  1  0  0  0  0
  1 43  1  0  0  0  0
  1 44  1  0  0  0  0
  1 45  1  0  0  0  0
  2  3  1  0  0  0  0
  2 42  2  0  0  0  0
  3  4  2  0  0  0  0
  3 46  1  0  0  0  0
  4  5  1  0  0  0  0
  4 47  1  0  0  0  0
  5  6  1  0  0  0  0
  5  7  2  0  0  0  0
  7  8  1  0  0  0  0
  7 42  1  0  0  0  0
  8  9  1  0  0  0  0
  8 48  1  0  0  0  0
  9 10  2  0  0  0  0
  9 11  1  0  0  0  0
 11 12  1  0  0  0  0
 11 49  1  0  0  0  0
 12 13  1  0  0  0  0
 12 40  2  0  0  0  0
 13 14  2  0  0  0  0
 13 50  1  0  0  0  0
 14 15  1  0  0  0  0
 14 51  1  0  0  0  0
 15 16  1  0  0  0  0
 15 39  2  0  0  0  0
 16 17  1  0  0  0  0
 17 18  1  0  0  0  0
 17 38  2  0  0  0  0
 18 19  2  0  0  0  0
 18 52  1  0  0  0  0
 19 20  1  0  0  0  0
 19 53  1  0  0  0  0
 20 21  2  0  0  0  0
 21 22  1  0  0  0  0
 21 38  1  0  0  0  0
 22 23  2  0  0  0  0
 22 54  1  0  0  0  0
 23 24  1  0  0  0  0
 23 37  1  0  0  0  0
 24 25  2  0  0  0  0
 24 26  1  0  0  0  0
 26 27  1  0  0  0  0
 26 55  1  0  0  0  0
 27 28  1  0  0  0  0
 27 56  1  0  0  0  0
 27 57  1  0  0  0  0
 28 29  1  0  0  0  0
 28 58  1  0  0  0  0
 28 59  1  0  0  0  0
 29 30  1  0  0  0  0
 29 60  1  0  0  0  0
 30 31  2  0  0  0  0
 30 32  1  0  0  0  0
 32 33  1  0  0  0  0
 33 34  1  0  0  0  0
 33 35  1  0  0  0  0
 33 36  1  0  0  0  0
 34 61  1  0  0  0  0
 34 62  1  0  0  0  0
 34 63  1  0  0  0  0
 35 64  1  0  0  0  0
 35 65  1  0  0  0  0
 35 66  1  0  0  0  0
 36 67  1  0  0  0  0
 36 68  1  0  0  0  0
 36 69  1  0  0  0  0
 37 38  1  0  0  0  0
 39 40  1  0  0  0  0
 39 70  1  0  0  0  0
 40 41  1  0  0  0  0
 42 71  1  0  0  0  0
M  END
$$$$
