CHEMBL4283873
 OpenBabel04072215383D

 42 44  0  0  0  0  0  0  0  0999 V2000
    2.0247   -1.4296    4.0752 C   0  0  0  0  0  0  0  0  0  0  0  0
    3.3861   -1.2114    3.6669 N   0  0  0  0  0  0  0  0  0  0  0  0
    3.7055   -0.3067    2.6788 C   0  0  0  0  0  0  0  0  0  0  0  0
    2.8734    0.3994    2.1140 O   0  0  0  0  0  0  0  0  0  0  0  0
    5.1611   -0.2177    2.3333 C   0  0  0  0  0  0  0  0  0  0  0  0
    5.5709    0.6886    1.3651 C   0  0  0  0  0  0  0  0  0  0  0  0
    6.9378    0.8166    1.1239 C   0  0  0  0  0  0  0  0  0  0  0  0
    7.4945    1.7051    0.2286 O   0  0  0  0  0  0  0  0  0  0  0  0
    6.9049    2.9324    0.0160 C   0  0  0  0  0  0  0  0  0  0  0  0
    6.1670    3.6258    0.9766 C   0  0  0  0  0  0  0  0  0  0  0  0
    5.5279    4.8226    0.6480 C   0  0  0  0  0  0  0  0  0  0  0  0
    5.6883    5.3915   -0.6192 C   0  0  0  0  0  0  0  0  0  0  0  0
    4.9684    6.6060   -1.0303 C   0  0  0  0  0  0  0  0  0  0  0  0
    4.5912    7.5924   -0.1999 C   0  0  0  0  0  0  0  0  0  0  0  0
    3.8241    8.7751   -0.6220 C   0  0  0  0  0  0  0  0  0  0  0  0
    2.9124    8.7382   -1.6797 C   0  0  0  0  0  0  0  0  0  0  0  0
    2.1908    9.8825   -1.9787 C   0  0  0  0  0  0  0  0  0  0  0  0
    2.3073   11.0425   -1.3007 N   0  0  0  0  0  0  0  0  0  0  0  0
    3.1820   11.0548   -0.2737 C   0  0  0  0  0  0  0  0  0  0  0  0
    3.9489    9.9625    0.1019 C   0  0  0  0  0  0  0  0  0  0  0  0
    6.4997    4.7324   -1.5531 C   0  0  0  0  0  0  0  0  0  0  0  0
    7.1073    3.5111   -1.2369 C   0  0  0  0  0  0  0  0  0  0  0  0
    7.8247   -0.0287    1.7812 C   0  0  0  0  0  0  0  0  0  0  0  0
    7.3193   -0.9269    2.7056 C   0  0  0  0  0  0  0  0  0  0  0  0
    6.0088   -1.0339    3.0195 N   0  0  0  0  0  0  0  0  0  0  0  0
    2.0043   -2.1846    4.8640 H   0  0  0  0  0  0  0  0  0  0  0  0
    1.4414   -1.7716    3.2157 H   0  0  0  0  0  0  0  0  0  0  0  0
    1.6027   -0.4898    4.4422 H   0  0  0  0  0  0  0  0  0  0  0  0
    4.1572   -1.7014    4.1130 H   0  0  0  0  0  0  0  0  0  0  0  0
    4.8341    1.2925    0.8474 H   0  0  0  0  0  0  0  0  0  0  0  0
    6.0398    3.2345    1.9812 H   0  0  0  0  0  0  0  0  0  0  0  0
    4.8848    5.2819    1.3941 H   0  0  0  0  0  0  0  0  0  0  0  0
    4.7443    6.6625   -2.0924 H   0  0  0  0  0  0  0  0  0  0  0  0
    4.8499    7.5584    0.8558 H   0  0  0  0  0  0  0  0  0  0  0  0
    2.7425    7.8382   -2.2597 H   0  0  0  0  0  0  0  0  0  0  0  0
    1.4717    9.8902   -2.7926 H   0  0  0  0  0  0  0  0  0  0  0  0
    3.2504   11.9965    0.2632 H   0  0  0  0  0  0  0  0  0  0  0  0
    4.6289   10.0475    0.9429 H   0  0  0  0  0  0  0  0  0  0  0  0
    6.6578    5.1586   -2.5415 H   0  0  0  0  0  0  0  0  0  0  0  0
    7.7246    3.0109   -1.9790 H   0  0  0  0  0  0  0  0  0  0  0  0
    8.8910    0.0213    1.5817 H   0  0  0  0  0  0  0  0  0  0  0  0
    7.9817   -1.6043    3.2427 H   0  0  0  0  0  0  0  0  0  0  0  0
  1  2  1  0  0  0  0
  1 26  1  0  0  0  0
  1 27  1  0  0  0  0
  1 28  1  0  0  0  0
  2  3  1  0  0  0  0
  2 29  1  0  0  0  0
  3  4  2  0  0  0  0
  3  5  1  0  0  0  0
  5  6  1  0  0  0  0
  5 25  2  0  0  0  0
  6  7  2  0  0  0  0
  6 30  1  0  0  0  0
  7  8  1  0  0  0  0
  7 23  1  0  0  0  0
  8  9  1  0  0  0  0
  9 10  1  0  0  0  0
  9 22  2  0  0  0  0
 10 11  2  0  0  0  0
 10 31  1  0  0  0  0
 11 12  1  0  0  0  0
 11 32  1  0  0  0  0
 12 13  1  0  0  0  0
 12 21  2  0  0  0  0
 13 14  2  0  0  0  0
 13 33  1  0  0  0  0
 14 15  1  0  0  0  0
 14 34  1  0  0  0  0
 15 16  1  0  0  0  0
 15 20  2  0  0  0  0
 16 17  2  0  0  0  0
 16 35  1  0  0  0  0
 17 18  1  0  0  0  0
 17 36  1  0  0  0  0
 18 19  2  0  0  0  0
 19 20  1  0  0  0  0
 19 37  1  0  0  0  0
 20 38  1  0  0  0  0
 21 22  1  0  0  0  0
 21 39  1  0  0  0  0
 22 40  1  0  0  0  0
 23 24  2  0  0  0  0
 23 41  1  0  0  0  0
 24 25  1  0  0  0  0
 24 42  1  0  0  0  0
M  END
$$$$
