CHEMBL3985182
 OpenBabel04072215373D

 60 64  0  0  0  0  0  0  0  0999 V2000
    0.9191    2.5699    3.9776 C   0  0  0  0  0  0  0  0  0  0  0  0
    2.3440    2.7098    4.0362 O   0  0  0  0  0  0  0  0  0  0  0  0
    3.0389    1.9418    3.1439 C   0  0  0  0  0  0  0  0  0  0  0  0
    2.4848    1.0190    2.3140 C   0  0  0  0  0  0  0  0  0  0  0  0
    3.2438    0.4033    1.3242 C   0  0  0  0  0  0  0  0  0  0  0  0
    2.6991   -0.4593    0.4175 O   0  0  0  0  0  0  0  0  0  0  0  0
    1.2939   -0.6515    0.5615 C   0  0  0  0  0  0  0  0  0  0  0  0
    4.5989    0.7009    1.1664 C   0  0  0  0  0  0  0  0  0  0  0  0
    5.2112    1.6387    1.9781 C   0  0  0  0  0  0  0  0  0  0  0  0
    6.5443    2.0639    1.7738 N   0  0  0  0  0  0  0  0  0  0  0  0
    7.0750    2.1083    0.3211 C   0  0  0  0  0  0  0  0  0  0  0  0
    7.7647    0.7766    0.0736 C   0  0  0  0  0  0  0  0  0  0  0  0
    8.3564   -0.3657   -0.1388 C   0  0  0  0  0  0  0  0  0  0  0  0
    9.0515   -1.6609   -0.3668 C   0  0  0  0  0  0  0  0  0  0  0  0
   10.3853   -1.8302   -0.0012 C   0  0  0  0  0  0  0  0  0  0  0  0
   11.1152   -2.9315   -0.4754 C   0  0  0  0  0  0  0  0  0  0  0  0
   10.4582   -3.9549   -1.1264 C   0  0  0  0  0  0  0  0  0  0  0  0
    9.0854   -3.8310   -1.2484 C   0  0  0  0  0  0  0  0  0  0  0  0
    8.3783   -2.6833   -0.9659 N   0  0  0  0  0  0  0  0  0  0  0  0
    7.5124    2.3569    2.7751 C   0  0  0  0  0  0  0  0  0  0  0  0
    8.3835    3.3578    2.4778 C   0  0  0  0  0  0  0  0  0  0  0  0
    9.2985    3.6691    3.3998 C   0  0  0  0  0  0  0  0  0  0  0  0
    9.5130    2.9922    4.5507 C   0  0  0  0  0  0  0  0  0  0  0  0
   10.7777    3.0532    4.5940 N   0  0  0  0  0  0  0  0  0  0  0  0
   11.2252    4.1190    5.1710 C   0  0  0  0  0  0  0  0  0  0  0  0
   11.3045    3.9091    6.4340 C   0  0  0  0  0  0  0  0  0  0  0  0
   12.9833    4.7237    6.6250 C   0  0  0  0  0  0  0  0  0  0  0  0
   14.1433    5.2048    5.5163 C   0  0  0  0  0  0  0  0  0  0  0  0
   15.1458    6.0553    5.9004 N   0  0  0  0  0  0  0  0  0  0  0  0
   14.8481    6.3946    7.1648 N   0  0  0  0  0  0  0  0  0  0  0  0
   15.7220    7.3818    7.9214 C   0  0  0  0  0  0  0  0  0  0  0  0
   13.5640    5.7051    7.5436 C   0  0  0  0  0  0  0  0  0  0  0  0
   10.0950    2.7185    6.6096 N   0  0  0  0  0  0  0  0  0  0  0  0
    8.9111    2.2082    5.3816 C   0  0  0  0  0  0  0  0  0  0  0  0
    7.7444    1.7267    4.1334 C   0  0  0  0  0  0  0  0  0  0  0  0
    4.4131    2.1042    3.0420 C   0  0  0  0  0  0  0  0  0  0  0  0
    0.4523    3.3320    4.6065 H   0  0  0  0  0  0  0  0  0  0  0  0
    0.6429    1.5856    4.3688 H   0  0  0  0  0  0  0  0  0  0  0  0
    0.5177    2.7008    2.9617 H   0  0  0  0  0  0  0  0  0  0  0  0
    1.4506    0.7768    2.4625 H   0  0  0  0  0  0  0  0  0  0  0  0
    0.9726   -1.3387   -0.2172 H   0  0  0  0  0  0  0  0  0  0  0  0
    0.7364    0.2883    0.4377 H   0  0  0  0  0  0  0  0  0  0  0  0
    1.0617   -1.1047    1.5334 H   0  0  0  0  0  0  0  0  0  0  0  0
    5.1987    0.1458    0.4558 H   0  0  0  0  0  0  0  0  0  0  0  0
    7.7655    2.9237    0.1152 H   0  0  0  0  0  0  0  0  0  0  0  0
    6.2363    2.2159   -0.3765 H   0  0  0  0  0  0  0  0  0  0  0  0
   10.8776   -1.1254    0.6536 H   0  0  0  0  0  0  0  0  0  0  0  0
   12.1904   -3.0030   -0.3327 H   0  0  0  0  0  0  0  0  0  0  0  0
   11.0083   -4.8206   -1.4854 H   0  0  0  0  0  0  0  0  0  0  0  0
    8.5155   -4.7036   -1.5704 H   0  0  0  0  0  0  0  0  0  0  0  0
    8.4840    3.9014    1.5566 H   0  0  0  0  0  0  0  0  0  0  0  0
   10.0398    4.4354    3.1654 H   0  0  0  0  0  0  0  0  0  0  0  0
   11.7488    4.7525    4.5143 H   0  0  0  0  0  0  0  0  0  0  0  0
   14.2974    4.9596    4.4580 H   0  0  0  0  0  0  0  0  0  0  0  0
   16.6781    7.6574    7.4100 H   0  0  0  0  0  0  0  0  0  0  0  0
   16.0194    6.9824    8.9038 H   0  0  0  0  0  0  0  0  0  0  0  0
   15.1932    8.3339    8.0854 H   0  0  0  0  0  0  0  0  0  0  0  0
   13.2906    6.0403    8.5127 H   0  0  0  0  0  0  0  0  0  0  0  0
    7.0717    0.8169    4.1488 H   0  0  0  0  0  0  0  0  0  0  0  0
    4.8676    2.4701    3.9394 H   0  0  0  0  0  0  0  0  0  0  0  0
  1  2  1  0  0  0  0
  1 37  1  0  0  0  0
  1 38  1  0  0  0  0
  1 39  1  0  0  0  0
  2  3  1  0  0  0  0
  3  4  1  0  0  0  0
  3 36  2  0  0  0  0
  4  5  2  0  0  0  0
  4 40  1  0  0  0  0
  5  6  1  0  0  0  0
  5  8  1  0  0  0  0
  6  7  1  0  0  0  0
  7 41  1  0  0  0  0
  7 42  1  0  0  0  0
  7 43  1  0  0  0  0
  8  9  2  0  0  0  0
  8 44  1  0  0  0  0
  9 10  1  0  0  0  0
  9 36  1  0  0  0  0
 10 11  1  0  0  0  0
 10 20  1  0  0  0  0
 11 12  1  0  0  0  0
 11 45  1  0  0  0  0
 11 46  1  0  0  0  0
 12 13  3  0  0  0  0
 13 14  1  0  0  0  0
 14 15  1  0  0  0  0
 14 19  2  0  0  0  0
 15 16  2  0  0  0  0
 15 47  1  0  0  0  0
 16 17  1  0  0  0  0
 16 48  1  0  0  0  0
 17 18  2  0  0  0  0
 17 49  1  0  0  0  0
 18 19  1  0  0  0  0
 18 50  1  0  0  0  0
 20 21  1  0  0  0  0
 20 35  2  0  0  0  0
 21 22  2  0  0  0  0
 21 51  1  0  0  0  0
 22 23  1  0  0  0  0
 22 52  1  0  0  0  0
 23 24  1  0  0  0  0
 23 34  2  0  0  0  0
 24 25  2  0  0  0  0
 25 26  1  0  0  0  0
 25 53  1  0  0  0  0
 26 27  1  0  0  0  0
 26 33  2  0  0  0  0
 27 28  1  0  0  0  0
 27 32  2  0  0  0  0
 28 29  2  0  0  0  0
 28 54  1  0  0  0  0
 29 30  1  0  0  0  0
 30 31  1  0  0  0  0
 30 32  1  0  0  0  0
 31 55  1  0  0  0  0
 31 56  1  0  0  0  0
 31 57  1  0  0  0  0
 32 58  1  0  0  0  0
 33 34  1  0  0  0  0
 34 35  1  0  0  0  0
 35 59  1  0  0  0  0
 36 60  1  0  0  0  0
M  END
$$$$
