CHEMBL3917570
 OpenBabel04072215373D

 55 58  0  0  0  0  0  0  0  0999 V2000
    2.6302    0.2166    0.0883 C   0  0  0  0  0  0  0  0  0  0  0  0
    1.1350    0.0659    0.1373 C   0  0  0  0  0  0  0  0  0  0  0  0
    0.3842    1.2623    0.2089 C   0  0  0  0  0  0  0  0  0  0  0  0
   -1.0106    1.2618    0.1606 C   0  0  0  0  0  0  0  0  0  0  0  0
   -1.7773    2.4044    0.2510 O   0  0  0  0  0  0  0  0  0  0  0  0
   -1.3393    3.5429   -0.4223 C   0  0  0  0  0  0  0  0  0  0  0  0
   -1.7886    4.7606    0.0422 C   0  0  0  0  0  0  0  0  0  0  0  0
   -1.3489    5.8639   -0.6605 C   0  0  0  0  0  0  0  0  0  0  0  0
   -1.7955    7.1415   -0.2604 N   0  0  0  0  0  0  0  0  0  0  0  0
   -1.4918    8.3059   -0.9433 C   0  0  0  0  0  0  0  0  0  0  0  0
   -0.8294    8.4240   -1.9635 O   0  0  0  0  0  0  0  0  0  0  0  0
   -2.0660    9.5369   -0.3115 C   0  0  0  0  0  0  0  0  0  0  0  0
   -1.9601   10.8758   -1.0132 C   0  0  0  0  0  0  0  0  0  0  0  0
   -1.1170   10.5982    0.1964 C   0  0  0  0  0  0  0  0  0  0  0  0
   -0.5191    5.7591   -1.6982 N   0  0  0  0  0  0  0  0  0  0  0  0
   -0.1562    4.5351   -2.0771 C   0  0  0  0  0  0  0  0  0  0  0  0
   -0.5447    3.4017   -1.4980 N   0  0  0  0  0  0  0  0  0  0  0  0
   -1.6750    0.0482    0.0856 C   0  0  0  0  0  0  0  0  0  0  0  0
   -0.9465   -1.1475    0.0484 C   0  0  0  0  0  0  0  0  0  0  0  0
    0.4603   -1.1720    0.0884 C   0  0  0  0  0  0  0  0  0  0  0  0
    1.1841   -2.4027    0.1050 N   0  0  0  0  0  0  0  0  0  0  0  0
    0.6364   -3.6662    0.3127 C   0  0  0  0  0  0  0  0  0  0  0  0
   -0.5568   -3.9096    0.4569 O   0  0  0  0  0  0  0  0  0  0  0  0
    1.6074   -4.6610    0.4261 N   0  0  0  0  0  0  0  0  0  0  0  0
    1.2343   -6.0069    0.7050 C   0  0  0  0  0  0  0  0  0  0  0  0
    1.9001   -6.6891    1.7264 C   0  0  0  0  0  0  0  0  0  0  0  0
    1.4714   -7.9634    2.1111 C   0  0  0  0  0  0  0  0  0  0  0  0
    0.4226   -8.5836    1.4348 C   0  0  0  0  0  0  0  0  0  0  0  0
   -0.0259   -9.7604    1.8925 F   0  0  0  0  0  0  0  0  0  0  0  0
   -0.1786   -7.9680    0.3377 C   0  0  0  0  0  0  0  0  0  0  0  0
   -1.1897   -8.4972   -0.4096 O   0  0  0  0  0  0  0  0  0  0  0  0
   -1.1513   -9.8868   -0.7256 C   0  0  0  0  0  0  0  0  0  0  0  0
   -0.0423  -10.5310   -0.3098 F   0  0  0  0  0  0  0  0  0  0  0  0
   -2.2420  -10.4963   -0.2129 F   0  0  0  0  0  0  0  0  0  0  0  0
   -1.2036  -10.0136   -2.0737 F   0  0  0  0  0  0  0  0  0  0  0  0
    0.2018   -6.6580    0.0083 C   0  0  0  0  0  0  0  0  0  0  0  0
    2.9286    1.2568    0.2746 H   0  0  0  0  0  0  0  0  0  0  0  0
    3.0038   -0.0501   -0.9053 H   0  0  0  0  0  0  0  0  0  0  0  0
    3.1167   -0.3933    0.8529 H   0  0  0  0  0  0  0  0  0  0  0  0
    0.9075    2.2128    0.2875 H   0  0  0  0  0  0  0  0  0  0  0  0
   -2.4456    4.8224    0.8985 H   0  0  0  0  0  0  0  0  0  0  0  0
   -2.3821    7.2037    0.5545 H   0  0  0  0  0  0  0  0  0  0  0  0
   -2.9809    9.3837    0.2520 H   0  0  0  0  0  0  0  0  0  0  0  0
   -2.7793   11.5773   -0.9129 H   0  0  0  0  0  0  0  0  0  0  0  0
   -1.4639   10.9177   -1.9784 H   0  0  0  0  0  0  0  0  0  0  0  0
   -1.3654   11.1100    1.1170 H   0  0  0  0  0  0  0  0  0  0  0  0
   -0.0525   10.4555    0.0370 H   0  0  0  0  0  0  0  0  0  0  0  0
    0.5192    4.4614   -2.9198 H   0  0  0  0  0  0  0  0  0  0  0  0
   -2.7597    0.0096    0.0489 H   0  0  0  0  0  0  0  0  0  0  0  0
   -1.5305   -2.0582   -0.0370 H   0  0  0  0  0  0  0  0  0  0  0  0
    2.1843   -2.3444   -0.0029 H   0  0  0  0  0  0  0  0  0  0  0  0
    2.4710   -4.3484    0.8444 H   0  0  0  0  0  0  0  0  0  0  0  0
    2.6949   -6.2116    2.2910 H   0  0  0  0  0  0  0  0  0  0  0  0
    1.9244   -8.4662    2.9611 H   0  0  0  0  0  0  0  0  0  0  0  0
   -0.3180   -6.1448   -0.7992 H   0  0  0  0  0  0  0  0  0  0  0  0
  1  2  1  0  0  0  0
  1 37  1  0  0  0  0
  1 38  1  0  0  0  0
  1 39  1  0  0  0  0
  2  3  1  0  0  0  0
  2 20  2  0  0  0  0
  3  4  2  0  0  0  0
  3 40  1  0  0  0  0
  4  5  1  0  0  0  0
  4 18  1  0  0  0  0
  5  6  1  0  0  0  0
  6  7  1  0  0  0  0
  6 17  2  0  0  0  0
  7  8  2  0  0  0  0
  7 41  1  0  0  0  0
  8  9  1  0  0  0  0
  8 15  1  0  0  0  0
  9 10  1  0  0  0  0
  9 42  1  0  0  0  0
 10 11  2  0  0  0  0
 10 12  1  0  0  0  0
 12 13  1  0  0  0  0
 12 14  1  0  0  0  0
 12 43  1  0  0  0  0
 13 14  1  0  0  0  0
 13 44  1  0  0  0  0
 13 45  1  0  0  0  0
 14 46  1  0  0  0  0
 14 47  1  0  0  0  0
 15 16  2  0  0  0  0
 16 17  1  0  0  0  0
 16 48  1  0  0  0  0
 18 19  2  0  0  0  0
 18 49  1  0  0  0  0
 19 20  1  0  0  0  0
 19 50  1  0  0  0  0
 20 21  1  0  0  0  0
 21 22  1  0  0  0  0
 21 51  1  0  0  0  0
 22 23  2  0  0  0  0
 22 24  1  0  0  0  0
 24 25  1  0  0  0  0
 24 52  1  0  0  0  0
 25 26  1  0  0  0  0
 25 36  2  0  0  0  0
 26 27  2  0  0  0  0
 26 53  1  0  0  0  0
 27 28  1  0  0  0  0
 27 54  1  0  0  0  0
 28 29  1  0  0  0  0
 28 30  2  0  0  0  0
 30 31  1  0  0  0  0
 30 36  1  0  0  0  0
 31 32  1  0  0  0  0
 32 33  1  0  0  0  0
 32 34  1  0  0  0  0
 32 35  1  0  0  0  0
 36 55  1  0  0  0  0
M  END
$$$$
