CHEMBL4165234
 OpenBabel04072215383D

 56 60  0  0  0  0  0  0  0  0999 V2000
    5.2150   -2.7216   -2.8395 N   0  0  0  0  0  0  0  0  0  0  0  0
    4.8340   -1.4330   -2.5301 C   0  0  0  0  0  0  0  0  0  0  0  0
    3.5468   -1.1211   -2.6904 N   0  0  0  0  0  0  0  0  0  0  0  0
    3.1999    0.1409   -2.3809 C   0  0  0  0  0  0  0  0  0  0  0  0
    4.0890    1.0881   -1.9029 C   0  0  0  0  0  0  0  0  0  0  0  0
    3.7237    2.4034   -1.5821 C   0  0  0  0  0  0  0  0  0  0  0  0
    4.6951    3.2971   -1.1375 C   0  0  0  0  0  0  0  0  0  0  0  0
    6.0390    2.9050   -1.0115 C   0  0  0  0  0  0  0  0  0  0  0  0
    7.0841    3.8846   -0.6372 C   0  0  0  0  0  0  0  0  0  0  0  0
    6.7993    4.9576    0.2175 C   0  0  0  0  0  0  0  0  0  0  0  0
    7.7440    5.9530    0.4805 C   0  0  0  0  0  0  0  0  0  0  0  0
    9.0169    5.9026   -0.0796 C   0  0  0  0  0  0  0  0  0  0  0  0
    9.9818    6.9102    0.1299 N   0  0  0  0  0  0  0  0  0  0  0  0
    9.8746    7.9444    1.0374 C   0  0  0  0  0  0  0  0  0  0  0  0
    8.9862    8.1383    1.8626 O   0  0  0  0  0  0  0  0  0  0  0  0
   10.9735    8.9495    0.9875 C   0  0  0  0  0  0  0  0  0  0  0  0
   10.7166   10.1252    0.0935 C   0  0  0  0  0  0  0  0  0  0  0  0
   11.4506   10.2729   -0.8745 O   0  0  0  0  0  0  0  0  0  0  0  0
    9.6646   10.9589    0.4667 N   0  0  0  0  0  0  0  0  0  0  0  0
    9.2688   12.1291   -0.2336 C   0  0  0  0  0  0  0  0  0  0  0  0
    9.6604   12.3785   -1.5525 C   0  0  0  0  0  0  0  0  0  0  0  0
    9.3769   13.5989   -2.1631 C   0  0  0  0  0  0  0  0  0  0  0  0
    9.9926   13.9319   -3.9201 Br  0  0  0  0  0  0  0  0  0  0  0  0
    8.6761   14.5856   -1.4814 C   0  0  0  0  0  0  0  0  0  0  0  0
    8.2140   14.3406   -0.1804 C   0  0  0  0  0  0  0  0  0  0  0  0
    7.4702   15.4210    0.5691 C   0  0  0  0  0  0  0  0  0  0  0  0
    7.3466   16.5837   -0.1324 F   0  0  0  0  0  0  0  0  0  0  0  0
    6.2042   15.0515    0.9026 F   0  0  0  0  0  0  0  0  0  0  0  0
    8.0847   15.7585    1.7362 F   0  0  0  0  0  0  0  0  0  0  0  0
    8.4924   13.0939    0.4274 C   0  0  0  0  0  0  0  0  0  0  0  0
   12.4116    8.4383    1.1359 C   0  0  0  0  0  0  0  0  0  0  0  0
   11.7792    9.1850    2.2651 C   0  0  0  0  0  0  0  0  0  0  0  0
    9.3357    4.8226   -0.9084 C   0  0  0  0  0  0  0  0  0  0  0  0
    8.3822    3.8273   -1.1757 C   0  0  0  0  0  0  0  0  0  0  0  0
    6.3517    1.5643   -1.3142 C   0  0  0  0  0  0  0  0  0  0  0  0
    5.4048    0.6488   -1.7633 C   0  0  0  0  0  0  0  0  0  0  0  0
    5.7735   -0.6058   -2.0627 N   0  0  0  0  0  0  0  0  0  0  0  0
    4.4196   -3.3403   -2.7711 H   0  0  0  0  0  0  0  0  0  0  0  0
    6.0482   -2.9707   -2.3268 H   0  0  0  0  0  0  0  0  0  0  0  0
    2.1529    0.3792   -2.5428 H   0  0  0  0  0  0  0  0  0  0  0  0
    2.6970    2.7432   -1.6931 H   0  0  0  0  0  0  0  0  0  0  0  0
    4.3896    4.3196   -0.9234 H   0  0  0  0  0  0  0  0  0  0  0  0
    5.8240    5.0618    0.6853 H   0  0  0  0  0  0  0  0  0  0  0  0
    7.4242    6.7778    1.1068 H   0  0  0  0  0  0  0  0  0  0  0  0
   10.8159    6.8742   -0.4459 H   0  0  0  0  0  0  0  0  0  0  0  0
    9.2125   10.7631    1.3559 H   0  0  0  0  0  0  0  0  0  0  0  0
   10.1926   11.6293   -2.1302 H   0  0  0  0  0  0  0  0  0  0  0  0
    8.4951   15.5485   -1.9574 H   0  0  0  0  0  0  0  0  0  0  0  0
    8.1407   12.9175    1.4432 H   0  0  0  0  0  0  0  0  0  0  0  0
   13.2024    8.9365    0.5849 H   0  0  0  0  0  0  0  0  0  0  0  0
   12.5786    7.3743    1.2669 H   0  0  0  0  0  0  0  0  0  0  0  0
   12.1449   10.1842    2.4708 H   0  0  0  0  0  0  0  0  0  0  0  0
   11.5193    8.6198    3.1543 H   0  0  0  0  0  0  0  0  0  0  0  0
   10.3186    4.7298   -1.3638 H   0  0  0  0  0  0  0  0  0  0  0  0
    8.6635    3.0167   -1.8456 H   0  0  0  0  0  0  0  0  0  0  0  0
    7.3753    1.2083   -1.2144 H   0  0  0  0  0  0  0  0  0  0  0  0
  1  2  1  0  0  0  0
  1 38  1  0  0  0  0
  1 39  1  0  0  0  0
  2  3  1  0  0  0  0
  2 37  2  0  0  0  0
  3  4  2  0  0  0  0
  4  5  1  0  0  0  0
  4 40  1  0  0  0  0
  5  6  1  0  0  0  0
  5 36  2  0  0  0  0
  6  7  2  0  0  0  0
  6 41  1  0  0  0  0
  7  8  1  0  0  0  0
  7 42  1  0  0  0  0
  8  9  1  0  0  0  0
  8 35  2  0  0  0  0
  9 10  1  0  0  0  0
  9 34  2  0  0  0  0
 10 11  2  0  0  0  0
 10 43  1  0  0  0  0
 11 12  1  0  0  0  0
 11 44  1  0  0  0  0
 12 13  1  0  0  0  0
 12 33  2  0  0  0  0
 13 14  1  0  0  0  0
 13 45  1  0  0  0  0
 14 15  2  0  0  0  0
 14 16  1  0  0  0  0
 16 17  1  0  0  0  0
 16 31  1  0  0  0  0
 16 32  1  0  0  0  0
 17 18  2  0  0  0  0
 17 19  1  0  0  0  0
 19 20  1  0  0  0  0
 19 46  1  0  0  0  0
 20 21  1  0  0  0  0
 20 30  2  0  0  0  0
 21 22  2  0  0  0  0
 21 47  1  0  0  0  0
 22 23  1  0  0  0  0
 22 24  1  0  0  0  0
 24 25  2  0  0  0  0
 24 48  1  0  0  0  0
 25 26  1  0  0  0  0
 25 30  1  0  0  0  0
 26 27  1  0  0  0  0
 26 28  1  0  0  0  0
 26 29  1  0  0  0  0
 30 49  1  0  0  0  0
 31 32  1  0  0  0  0
 31 50  1  0  0  0  0
 31 51  1  0  0  0  0
 32 52  1  0  0  0  0
 32 53  1  0  0  0  0
 33 34  1  0  0  0  0
 33 54  1  0  0  0  0
 34 55  1  0  0  0  0
 35 36  1  0  0  0  0
 35 56  1  0  0  0  0
 36 37  1  0  0  0  0
M  END
$$$$
