CHEMBL4558790
 OpenBabel04072215383D

 42 44  0  0  0  0  0  0  0  0999 V2000
   -3.0178   -0.0715   -0.6211 N   0  0  0  0  0  0  0  0  0  0  0  0
   -1.8641   -0.0743   -0.5014 C   0  0  0  0  0  0  0  0  0  0  0  0
   -0.4359   -0.0845   -0.3538 C   0  0  0  0  0  0  0  0  0  0  0  0
    0.3230   -1.1289   -0.8999 C   0  0  0  0  0  0  0  0  0  0  0  0
    1.7187   -1.1475   -0.7604 C   0  0  0  0  0  0  0  0  0  0  0  0
    2.3628   -0.1128   -0.0758 C   0  0  0  0  0  0  0  0  0  0  0  0
    3.8455   -0.0463    0.0751 C   0  0  0  0  0  0  0  0  0  0  0  0
    4.3350    1.0797    0.1697 O   0  0  0  0  0  0  0  0  0  0  0  0
    4.6511   -1.3497    0.1362 C   0  0  0  0  0  0  0  0  0  0  0  0
    6.4138   -0.9555    0.3984 S   0  0  0  0  0  0  0  0  0  0  0  0
    7.2074   -2.5378    0.4315 C   0  0  0  0  0  0  0  0  0  0  0  0
    8.5349   -2.4771    0.6309 N   0  0  0  0  0  0  0  0  0  0  0  0
    9.2011   -3.6366    0.6617 C   0  0  0  0  0  0  0  0  0  0  0  0
    8.5862   -4.8509    0.5177 C   0  0  0  0  0  0  0  0  0  0  0  0
    7.2180   -4.8297    0.3118 C   0  0  0  0  0  0  0  0  0  0  0  0
    6.5887   -6.0819    0.1074 N   0  0  0  0  0  0  0  0  0  0  0  0
    5.3418   -6.3164   -0.4924 C   0  0  0  0  0  0  0  0  0  0  0  0
    4.9287   -5.5782   -1.6084 C   0  0  0  0  0  0  0  0  0  0  0  0
    3.6918   -5.8116   -2.2122 C   0  0  0  0  0  0  0  0  0  0  0  0
    2.8324   -6.7765   -1.6798 C   0  0  0  0  0  0  0  0  0  0  0  0
    1.4970   -7.0527   -2.2678 C   0  0  0  0  0  0  0  0  0  0  0  0
    0.9611   -8.1461   -2.2080 O   0  0  0  0  0  0  0  0  0  0  0  0
    0.9056   -5.9716   -2.8181 O   0  0  0  0  0  0  0  0  0  0  0  0
    3.2441   -7.5399   -0.5818 C   0  0  0  0  0  0  0  0  0  0  0  0
    4.4943   -7.3136    0.0045 C   0  0  0  0  0  0  0  0  0  0  0  0
    6.5145   -3.6739    0.2546 N   0  0  0  0  0  0  0  0  0  0  0  0
    1.5994    0.9408    0.4550 C   0  0  0  0  0  0  0  0  0  0  0  0
    0.2072    0.9530    0.3237 C   0  0  0  0  0  0  0  0  0  0  0  0
   -0.1728   -1.9282   -1.4493 H   0  0  0  0  0  0  0  0  0  0  0  0
    2.2779   -1.9565   -1.2201 H   0  0  0  0  0  0  0  0  0  0  0  0
    4.5430   -1.8924   -0.8059 H   0  0  0  0  0  0  0  0  0  0  0  0
    4.2828   -1.9496    0.9740 H   0  0  0  0  0  0  0  0  0  0  0  0
   10.2747   -3.5549    0.7998 H   0  0  0  0  0  0  0  0  0  0  0  0
    9.1561   -5.7705    0.5295 H   0  0  0  0  0  0  0  0  0  0  0  0
    6.8464   -6.7566    0.8183 H   0  0  0  0  0  0  0  0  0  0  0  0
    5.5952   -4.8321   -2.0371 H   0  0  0  0  0  0  0  0  0  0  0  0
    3.4427   -5.2561   -3.1113 H   0  0  0  0  0  0  0  0  0  0  0  0
    1.3634   -5.1264   -2.6691 H   0  0  0  0  0  0  0  0  0  0  0  0
    2.5927   -8.3144   -0.1788 H   0  0  0  0  0  0  0  0  0  0  0  0
    4.7886   -7.9195    0.8586 H   0  0  0  0  0  0  0  0  0  0  0  0
    2.0905    1.7664    0.9699 H   0  0  0  0  0  0  0  0  0  0  0  0
   -0.3629    1.7813    0.7441 H   0  0  0  0  0  0  0  0  0  0  0  0
  1  2  3  0  0  0  0
  2  3  1  0  0  0  0
  3  4  1  0  0  0  0
  3 28  2  0  0  0  0
  4  5  2  0  0  0  0
  4 29  1  0  0  0  0
  5  6  1  0  0  0  0
  5 30  1  0  0  0  0
  6  7  1  0  0  0  0
  6 27  2  0  0  0  0
  7  8  2  0  0  0  0
  7  9  1  0  0  0  0
  9 10  1  0  0  0  0
  9 31  1  0  0  0  0
  9 32  1  0  0  0  0
 10 11  1  0  0  0  0
 11 12  1  0  0  0  0
 11 26  2  0  0  0  0
 12 13  2  0  0  0  0
 13 14  1  0  0  0  0
 13 33  1  0  0  0  0
 14 15  2  0  0  0  0
 14 34  1  0  0  0  0
 15 16  1  0  0  0  0
 15 26  1  0  0  0  0
 16 17  1  0  0  0  0
 16 35  1  0  0  0  0
 17 18  1  0  0  0  0
 17 25  2  0  0  0  0
 18 19  2  0  0  0  0
 18 36  1  0  0  0  0
 19 20  1  0  0  0  0
 19 37  1  0  0  0  0
 20 21  1  0  0  0  0
 20 24  2  0  0  0  0
 21 22  2  0  0  0  0
 21 23  1  0  0  0  0
 23 38  1  0  0  0  0
 24 25  1  0  0  0  0
 24 39  1  0  0  0  0
 25 40  1  0  0  0  0
 27 28  1  0  0  0  0
 27 41  1  0  0  0  0
 28 42  1  0  0  0  0
M  END
$$$$
