CHEMBL574125
 OpenBabel04072215383D

 79 84  0  0  0  0  0  0  0  0999 V2000
    2.6345   -1.1525   -0.6052 C   0  0  0  0  0  0  0  0  0  0  0  0
    2.4668   -0.0722    0.3042 O   0  0  0  0  0  0  0  0  0  0  0  0
    3.1452    1.0879    0.0769 C   0  0  0  0  0  0  0  0  0  0  0  0
    4.2805    1.1813   -0.7370 C   0  0  0  0  0  0  0  0  0  0  0  0
    4.9073    2.4236   -1.0039 C   0  0  0  0  0  0  0  0  0  0  0  0
    6.0191    2.5865   -1.8631 C   0  0  0  0  0  0  0  0  0  0  0  0
    6.4959    1.4750   -2.5332 O   0  0  0  0  0  0  0  0  0  0  0  0
    6.9519    1.6083   -3.8280 C   0  0  0  0  0  0  0  0  0  0  0  0
    8.0115    0.7766   -4.1819 C   0  0  0  0  0  0  0  0  0  0  0  0
    8.5211    0.7916   -5.4871 C   0  0  0  0  0  0  0  0  0  0  0  0
    7.9800    1.6329   -6.4664 C   0  0  0  0  0  0  0  0  0  0  0  0
    8.4194    1.6497   -7.8085 N   0  0  0  0  0  0  0  0  0  0  0  0
    9.5018    0.9775   -8.3293 C   0  0  0  0  0  0  0  0  0  0  0  0
   10.3621    0.3958   -7.6712 O   0  0  0  0  0  0  0  0  0  0  0  0
    9.5794    0.9799   -9.7170 N   0  0  0  0  0  0  0  0  0  0  0  0
   10.6042    0.2097  -10.3782 C   0  0  0  0  0  0  0  0  0  0  0  0
   10.2486    0.3188  -11.8439 C   0  0  0  0  0  0  0  0  0  0  0  0
    9.5545    1.5843  -11.9159 N   0  0  0  0  0  0  0  0  0  0  0  0
    9.4571    2.3343  -13.1087 C   0  0  0  0  0  0  0  0  0  0  0  0
    9.1971    3.7087  -13.0804 C   0  0  0  0  0  0  0  0  0  0  0  0
    9.2189    4.4646  -14.2583 C   0  0  0  0  0  0  0  0  0  0  0  0
    9.4712    3.8513  -15.4828 C   0  0  0  0  0  0  0  0  0  0  0  0
    9.6976    2.4804  -15.5323 C   0  0  0  0  0  0  0  0  0  0  0  0
    9.6975    1.7296  -14.3527 C   0  0  0  0  0  0  0  0  0  0  0  0
    9.0531    1.9242  -10.6365 C   0  0  0  0  0  0  0  0  0  0  0  0
    8.2792    2.8242  -10.3307 O   0  0  0  0  0  0  0  0  0  0  0  0
    6.9107    2.4605   -6.1116 C   0  0  0  0  0  0  0  0  0  0  0  0
    6.3964    2.4340   -4.8100 C   0  0  0  0  0  0  0  0  0  0  0  0
    5.3467    3.2214   -4.5359 F   0  0  0  0  0  0  0  0  0  0  0  0
    6.6404    3.8250   -1.9766 C   0  0  0  0  0  0  0  0  0  0  0  0
    6.0656    4.8926   -1.3208 C   0  0  0  0  0  0  0  0  0  0  0  0
    4.9633    4.7935   -0.5511 N   0  0  0  0  0  0  0  0  0  0  0  0
    4.4041    3.5855   -0.3891 C   0  0  0  0  0  0  0  0  0  0  0  0
    3.3003    3.4757    0.4404 C   0  0  0  0  0  0  0  0  0  0  0  0
    2.6867    2.2493    0.7230 C   0  0  0  0  0  0  0  0  0  0  0  0
    1.6575    2.3386    1.6224 O   0  0  0  0  0  0  0  0  0  0  0  0
    1.4896    1.2950    2.5866 C   0  0  0  0  0  0  0  0  0  0  0  0
    2.7393    0.9962    3.4245 C   0  0  0  0  0  0  0  0  0  0  0  0
    3.1657    2.2129    4.2562 C   0  0  0  0  0  0  0  0  0  0  0  0
    4.4107    2.0059    5.0227 N   0  0  0  0  0  0  0  0  0  0  0  0
    4.7180    3.2058    5.8433 C   0  0  0  0  0  0  0  0  0  0  0  0
    5.2240    4.4173    5.0322 C   0  0  0  0  0  0  0  0  0  0  0  0
    6.3405    4.0782    4.1986 O   0  0  0  0  0  0  0  0  0  0  0  0
    6.0200    2.9766    3.3395 C   0  0  0  0  0  0  0  0  0  0  0  0
    5.5966    1.7551    4.1685 C   0  0  0  0  0  0  0  0  0  0  0  0
    3.2918   -1.9011   -0.1537 H   0  0  0  0  0  0  0  0  0  0  0  0
    3.0073   -0.8622   -1.5912 H   0  0  0  0  0  0  0  0  0  0  0  0
    1.6525   -1.6089   -0.7632 H   0  0  0  0  0  0  0  0  0  0  0  0
    4.7199    0.2863   -1.1704 H   0  0  0  0  0  0  0  0  0  0  0  0
    8.4474    0.1025   -3.4479 H   0  0  0  0  0  0  0  0  0  0  0  0
    9.3382    0.1113   -5.7083 H   0  0  0  0  0  0  0  0  0  0  0  0
    7.9158    2.2407   -8.4668 H   0  0  0  0  0  0  0  0  0  0  0  0
   10.6398   -0.8204  -10.0139 H   0  0  0  0  0  0  0  0  0  0  0  0
   11.5654    0.6924  -10.1726 H   0  0  0  0  0  0  0  0  0  0  0  0
    9.5507   -0.4718  -12.1427 H   0  0  0  0  0  0  0  0  0  0  0  0
   11.1427    0.2923  -12.4726 H   0  0  0  0  0  0  0  0  0  0  0  0
    9.0245    4.2305  -12.1435 H   0  0  0  0  0  0  0  0  0  0  0  0
    9.0516    5.5379  -14.2134 H   0  0  0  0  0  0  0  0  0  0  0  0
    9.4913    4.4418  -16.3952 H   0  0  0  0  0  0  0  0  0  0  0  0
    9.8807    1.9932  -16.4868 H   0  0  0  0  0  0  0  0  0  0  0  0
    9.8722    0.6607  -14.4358 H   0  0  0  0  0  0  0  0  0  0  0  0
    6.4528    3.1311   -6.8333 H   0  0  0  0  0  0  0  0  0  0  0  0
    7.5307    3.9719   -2.5750 H   0  0  0  0  0  0  0  0  0  0  0  0
    6.4845    5.8896   -1.4036 H   0  0  0  0  0  0  0  0  0  0  0  0
    2.9218    4.3762    0.9211 H   0  0  0  0  0  0  0  0  0  0  0  0
    1.0902    0.3941    2.1122 H   0  0  0  0  0  0  0  0  0  0  0  0
    0.6966    1.6360    3.2632 H   0  0  0  0  0  0  0  0  0  0  0  0
    3.5465    0.6873    2.7585 H   0  0  0  0  0  0  0  0  0  0  0  0
    2.5343    0.1487    4.0894 H   0  0  0  0  0  0  0  0  0  0  0  0
    2.3570    2.4129    4.9717 H   0  0  0  0  0  0  0  0  0  0  0  0
    3.2312    3.0973    3.6154 H   0  0  0  0  0  0  0  0  0  0  0  0
    5.5008    2.9200    6.5583 H   0  0  0  0  0  0  0  0  0  0  0  0
    3.8485    3.4927    6.4464 H   0  0  0  0  0  0  0  0  0  0  0  0
    5.5592    5.2008    5.7187 H   0  0  0  0  0  0  0  0  0  0  0  0
    4.4303    4.8477    4.4108 H   0  0  0  0  0  0  0  0  0  0  0  0
    6.9138    2.7373    2.7553 H   0  0  0  0  0  0  0  0  0  0  0  0
    5.2433    3.2812    2.6320 H   0  0  0  0  0  0  0  0  0  0  0  0
    6.4278    1.4883    4.8356 H   0  0  0  0  0  0  0  0  0  0  0  0
    5.4553    0.8813    3.5267 H   0  0  0  0  0  0  0  0  0  0  0  0
  1  2  1  0  0  0  0
  1 46  1  0  0  0  0
  1 47  1  0  0  0  0
  1 48  1  0  0  0  0
  2  3  1  0  0  0  0
  3  4  1  0  0  0  0
  3 35  2  0  0  0  0
  4  5  2  0  0  0  0
  4 49  1  0  0  0  0
  5  6  1  0  0  0  0
  5 33  1  0  0  0  0
  6  7  1  0  0  0  0
  6 30  2  0  0  0  0
  7  8  1  0  0  0  0
  8  9  1  0  0  0  0
  8 28  2  0  0  0  0
  9 10  2  0  0  0  0
  9 50  1  0  0  0  0
 10 11  1  0  0  0  0
 10 51  1  0  0  0  0
 11 12  1  0  0  0  0
 11 27  2  0  0  0  0
 12 13  1  0  0  0  0
 12 52  1  0  0  0  0
 13 14  2  0  0  0  0
 13 15  1  0  0  0  0
 15 16  1  0  0  0  0
 15 25  1  0  0  0  0
 16 17  1  0  0  0  0
 16 53  1  0  0  0  0
 16 54  1  0  0  0  0
 17 18  1  0  0  0  0
 17 55  1  0  0  0  0
 17 56  1  0  0  0  0
 18 19  1  0  0  0  0
 18 25  1  0  0  0  0
 19 20  1  0  0  0  0
 19 24  2  0  0  0  0
 20 21  2  0  0  0  0
 20 57  1  0  0  0  0
 21 22  1  0  0  0  0
 21 58  1  0  0  0  0
 22 23  2  0  0  0  0
 22 59  1  0  0  0  0
 23 24  1  0  0  0  0
 23 60  1  0  0  0  0
 24 61  1  0  0  0  0
 25 26  2  0  0  0  0
 27 28  1  0  0  0  0
 27 62  1  0  0  0  0
 28 29  1  0  0  0  0
 30 31  1  0  0  0  0
 30 63  1  0  0  0  0
 31 32  2  0  0  0  0
 31 64  1  0  0  0  0
 32 33  1  0  0  0  0
 33 34  2  0  0  0  0
 34 35  1  0  0  0  0
 34 65  1  0  0  0  0
 35 36  1  0  0  0  0
 36 37  1  0  0  0  0
 37 38  1  0  0  0  0
 37 66  1  0  0  0  0
 37 67  1  0  0  0  0
 38 39  1  0  0  0  0
 38 68  1  0  0  0  0
 38 69  1  0  0  0  0
 39 40  1  0  0  0  0
 39 70  1  0  0  0  0
 39 71  1  0  0  0  0
 40 41  1  0  0  0  0
 40 45  1  0  0  0  0
 41 42  1  0  0  0  0
 41 72  1  0  0  0  0
 41 73  1  0  0  0  0
 42 43  1  0  0  0  0
 42 74  1  0  0  0  0
 42 75  1  0  0  0  0
 43 44  1  0  0  0  0
 44 45  1  0  0  0  0
 44 76  1  0  0  0  0
 44 77  1  0  0  0  0
 45 78  1  0  0  0  0
 45 79  1  0  0  0  0
M  END
$$$$
