CHEMBL237570
 OpenBabel04072215363D

 59 63  0  0  0  0  0  0  0  0999 V2000
    3.1322   -3.8025   -0.2286 C   0  0  0  0  0  0  0  0  0  0  0  0
    3.2041   -2.3943   -0.4275 O   0  0  0  0  0  0  0  0  0  0  0  0
    4.0889   -1.9606   -1.3760 C   0  0  0  0  0  0  0  0  0  0  0  0
    4.9876   -2.7671   -2.0723 C   0  0  0  0  0  0  0  0  0  0  0  0
    5.8512   -2.2023   -3.0098 C   0  0  0  0  0  0  0  0  0  0  0  0
    5.8062   -0.8312   -3.2875 C   0  0  0  0  0  0  0  0  0  0  0  0
    6.6737   -0.2693   -4.2322 C   0  0  0  0  0  0  0  0  0  0  0  0
    6.5588    1.0586   -4.6526 C   0  0  0  0  0  0  0  0  0  0  0  0
    7.4288    1.6196   -5.7135 C   0  0  0  0  0  0  0  0  0  0  0  0
    8.0477    2.8584   -5.8397 C   0  0  0  0  0  0  0  0  0  0  0  0
    8.1096    3.9334   -4.8502 C   0  0  0  0  0  0  0  0  0  0  0  0
    8.1538    3.6816   -3.4755 C   0  0  0  0  0  0  0  0  0  0  0  0
    8.1227    4.7503   -2.5935 C   0  0  0  0  0  0  0  0  0  0  0  0
    8.1012    6.0401   -2.9829 N   0  0  0  0  0  0  0  0  0  0  0  0
    8.1154    6.2675   -4.3143 C   0  0  0  0  0  0  0  0  0  0  0  0
    8.1180    5.2647   -5.2724 C   0  0  0  0  0  0  0  0  0  0  0  0
    8.6160    3.0041   -7.0857 N   0  0  0  0  0  0  0  0  0  0  0  0
    8.4261    1.8738   -7.7392 C   0  0  0  0  0  0  0  0  0  0  0  0
    8.9067    1.6079   -9.1206 C   0  0  0  0  0  0  0  0  0  0  0  0
    8.1333    0.8315  -10.0044 C   0  0  0  0  0  0  0  0  0  0  0  0
    8.6203    0.4248  -11.2500 C   0  0  0  0  0  0  0  0  0  0  0  0
    9.8612    0.8682  -11.6954 C   0  0  0  0  0  0  0  0  0  0  0  0
   10.4830    0.3560  -13.3157 S   0  3  3  0  0  0  0  0  0  0  0  0
   12.0981   -0.2764  -12.7957 C   0  0  0  0  0  0  0  0  0  0  0  0
    9.6213   -0.8803  -13.7630 O   0  5  0  0  0  0  0  0  0  0  0  0
   10.5869    1.7509  -10.8894 C   0  0  0  0  0  0  0  0  0  0  0  0
   10.1388    2.1081   -9.5976 C   0  0  0  0  0  0  0  0  0  0  0  0
   11.0107    3.0248   -8.7793 C   0  0  0  0  0  0  0  0  0  0  0  0
    7.7706    0.9721   -6.9074 N   0  0  0  0  0  0  0  0  0  0  0  0
    7.5037   -0.4181   -7.2084 C   0  0  0  0  0  0  0  0  0  0  0  0
    5.5978    1.8546   -4.0116 C   0  0  0  0  0  0  0  0  0  0  0  0
    4.8029    1.3427   -2.9764 C   0  0  0  0  0  0  0  0  0  0  0  0
    4.8759   -0.0133   -2.6234 C   0  0  0  0  0  0  0  0  0  0  0  0
    4.0467   -0.5880   -1.6441 C   0  0  0  0  0  0  0  0  0  0  0  0
    2.3547   -3.9938    0.5228 H   0  0  0  0  0  0  0  0  0  0  0  0
    4.0774   -4.1919    0.1643 H   0  0  0  0  0  0  0  0  0  0  0  0
    2.8432   -4.3171   -1.1488 H   0  0  0  0  0  0  0  0  0  0  0  0
    5.0458   -3.8377   -1.9126 H   0  0  0  0  0  0  0  0  0  0  0  0
    6.5405   -2.8522   -3.5450 H   0  0  0  0  0  0  0  0  0  0  0  0
    7.4563   -0.9057   -4.6237 H   0  0  0  0  0  0  0  0  0  0  0  0
    8.1874    2.6742   -3.0791 H   0  0  0  0  0  0  0  0  0  0  0  0
    8.1044    4.5872   -1.5199 H   0  0  0  0  0  0  0  0  0  0  0  0
    8.1239    7.3142   -4.6013 H   0  0  0  0  0  0  0  0  0  0  0  0
    8.1185    5.5200   -6.3273 H   0  0  0  0  0  0  0  0  0  0  0  0
    7.1345    0.5011   -9.7272 H   0  0  0  0  0  0  0  0  0  0  0  0
    8.0191   -0.2429  -11.8649 H   0  0  0  0  0  0  0  0  0  0  0  0
   12.7278    0.5457  -12.4491 H   0  0  0  0  0  0  0  0  0  0  0  0
   12.5786   -0.7446  -13.6584 H   0  0  0  0  0  0  0  0  0  0  0  0
   11.9757   -1.0197  -12.0039 H   0  0  0  0  0  0  0  0  0  0  0  0
   11.5196    2.1707  -11.2574 H   0  0  0  0  0  0  0  0  0  0  0  0
   11.9546    3.2402   -9.2935 H   0  0  0  0  0  0  0  0  0  0  0  0
   11.2673    2.5606   -7.8227 H   0  0  0  0  0  0  0  0  0  0  0  0
   10.5096    3.9836   -8.6143 H   0  0  0  0  0  0  0  0  0  0  0  0
    7.9232   -0.7265   -8.1606 H   0  0  0  0  0  0  0  0  0  0  0  0
    6.4225   -0.5756   -7.2081 H   0  0  0  0  0  0  0  0  0  0  0  0
    8.0124   -1.0426   -6.4775 H   0  0  0  0  0  0  0  0  0  0  0  0
    5.4681    2.8994   -4.2888 H   0  0  0  0  0  0  0  0  0  0  0  0
    4.1079    2.0081   -2.4677 H   0  0  0  0  0  0  0  0  0  0  0  0
    3.3412    0.0321   -1.0949 H   0  0  0  0  0  0  0  0  0  0  0  0
  1  2  1  0  0  0  0
  1 35  1  0  0  0  0
  1 36  1  0  0  0  0
  1 37  1  0  0  0  0
  2  3  1  0  0  0  0
  3  4  1  0  0  0  0
  3 34  2  0  0  0  0
  4  5  2  0  0  0  0
  4 38  1  0  0  0  0
  5  6  1  0  0  0  0
  5 39  1  0  0  0  0
  6  7  1  0  0  0  0
  6 33  2  0  0  0  0
  7  8  2  0  0  0  0
  7 40  1  0  0  0  0
  8  9  1  0  0  0  0
  8 31  1  0  0  0  0
  9 10  2  0  0  0  0
  9 29  1  0  0  0  0
 10 11  1  0  0  0  0
 10 17  1  0  0  0  0
 11 12  1  0  0  0  0
 11 16  2  0  0  0  0
 12 13  2  0  0  0  0
 12 41  1  0  0  0  0
 13 14  1  0  0  0  0
 13 42  1  0  0  0  0
 14 15  2  0  0  0  0
 15 16  1  0  0  0  0
 15 43  1  0  0  0  0
 16 44  1  0  0  0  0
 17 18  2  0  0  0  0
 18 19  1  0  0  0  0
 18 29  1  0  0  0  0
 19 20  1  0  0  0  0
 19 27  2  0  0  0  0
 20 21  2  0  0  0  0
 20 45  1  0  0  0  0
 21 22  1  0  0  0  0
 21 46  1  0  0  0  0
 22 23  1  0  0  0  0
 22 26  2  0  0  0  0
 23 24  1  0  0  0  0
 23 25  1  0  0  0  0
 24 47  1  0  0  0  0
 24 48  1  0  0  0  0
 24 49  1  0  0  0  0
 26 27  1  0  0  0  0
 26 50  1  0  0  0  0
 27 28  1  0  0  0  0
 28 51  1  0  0  0  0
 28 52  1  0  0  0  0
 28 53  1  0  0  0  0
 29 30  1  0  0  0  0
 30 54  1  0  0  0  0
 30 55  1  0  0  0  0
 30 56  1  0  0  0  0
 31 32  2  0  0  0  0
 31 57  1  0  0  0  0
 32 33  1  0  0  0  0
 32 58  1  0  0  0  0
 33 34  1  0  0  0  0
 34 59  1  0  0  0  0
M  CHG  2  23   1  25  -1
M  END
$$$$
