CHEMBL3943632
 OpenBabel04072215373D

 57 61  0  0  0  0  0  0  0  0999 V2000
    0.9945    0.3469   -0.5931 C   0  0  0  0  0  0  0  0  0  0  0  0
    2.3865    0.1741   -0.3689 O   0  0  0  0  0  0  0  0  0  0  0  0
    2.9663   -1.0043   -0.7415 C   0  0  0  0  0  0  0  0  0  0  0  0
    4.0378   -1.3676    0.0895 C   0  0  0  0  0  0  0  0  0  0  0  0
    4.7889   -2.5479   -0.1342 C   0  0  0  0  0  0  0  0  0  0  0  0
    5.8454   -3.0269    0.6587 C   0  0  0  0  0  0  0  0  0  0  0  0
    6.2113   -2.3280    1.8423 N   0  0  0  0  0  0  0  0  0  0  0  0
    7.4362   -2.5294    2.5186 C   0  0  0  0  0  0  0  0  0  0  0  0
    8.6456   -2.5525    1.8078 C   0  0  0  0  0  0  0  0  0  0  0  0
    9.8569   -2.8017    2.4513 C   0  0  0  0  0  0  0  0  0  0  0  0
    9.8790   -3.0223    3.8265 C   0  0  0  0  0  0  0  0  0  0  0  0
   11.4066   -3.3568    4.5599 Cl  0  0  0  0  0  0  0  0  0  0  0  0
    8.6846   -2.9754    4.5547 C   0  0  0  0  0  0  0  0  0  0  0  0
    8.6381   -3.2417    6.2630 Cl  0  0  0  0  0  0  0  0  0  0  0  0
    7.4700   -2.7181    3.9012 C   0  0  0  0  0  0  0  0  0  0  0  0
    6.5255   -4.1489    0.3465 N   0  0  0  0  0  0  0  0  0  0  0  0
    6.1496   -4.8008   -0.7534 C   0  0  0  0  0  0  0  0  0  0  0  0
    5.1638   -4.4373   -1.5731 N   0  0  0  0  0  0  0  0  0  0  0  0
    4.5020   -3.3253   -1.2521 C   0  0  0  0  0  0  0  0  0  0  0  0
    3.4697   -2.9403   -2.0839 C   0  0  0  0  0  0  0  0  0  0  0  0
    2.6533   -1.8173   -1.8356 C   0  0  0  0  0  0  0  0  0  0  0  0
    1.5843   -1.5007   -2.6499 O   0  0  0  0  0  0  0  0  0  0  0  0
    1.1232   -2.6052   -3.4465 C   0  0  0  0  0  0  0  0  0  0  0  0
   -0.2458   -2.3689   -3.9980 C   0  0  0  0  0  0  0  0  0  0  0  0
   -1.1752   -3.3045   -3.9849 N   0  0  0  0  0  0  0  0  0  0  0  0
   -2.2571   -2.9213   -4.7550 C   0  0  0  0  0  0  0  0  0  0  0  0
   -3.4081   -3.8024   -4.9085 C   0  0  0  0  0  0  0  0  0  0  0  0
   -3.7120   -4.7130   -3.8880 C   0  0  0  0  0  0  0  0  0  0  0  0
   -4.8533   -5.5136   -3.9596 C   0  0  0  0  0  0  0  0  0  0  0  0
   -5.7012   -5.4194   -5.0649 C   0  0  0  0  0  0  0  0  0  0  0  0
   -6.8419   -6.1803   -5.0778 O   0  0  0  0  0  0  0  0  0  0  0  0
   -5.3888   -4.5570   -6.1274 C   0  0  0  0  0  0  0  0  0  0  0  0
   -6.2192   -4.3996   -7.3595 C   0  0  0  0  0  0  0  0  0  0  0  0
   -7.3938   -5.0874   -7.4286 N   0  0  0  0  0  0  0  0  0  0  0  0
   -5.8709   -3.6694   -8.2807 O   0  0  0  0  0  0  0  0  0  0  0  0
   -4.2324   -3.7593   -6.0403 C   0  0  0  0  0  0  0  0  0  0  0  0
   -2.1554   -1.6539   -5.2953 C   0  0  0  0  0  0  0  0  0  0  0  0
   -0.6528   -0.9437   -4.8596 S   0  0  0  0  0  0  0  0  0  0  0  0
    0.5728    0.7812    0.3198 H   0  0  0  0  0  0  0  0  0  0  0  0
    0.4473   -0.5798   -0.7819 H   0  0  0  0  0  0  0  0  0  0  0  0
    0.8442    1.0643   -1.4049 H   0  0  0  0  0  0  0  0  0  0  0  0
    4.2884   -0.7177    0.9248 H   0  0  0  0  0  0  0  0  0  0  0  0
    5.4135   -2.2805    2.4611 H   0  0  0  0  0  0  0  0  0  0  0  0
    8.6420   -2.3955    0.7295 H   0  0  0  0  0  0  0  0  0  0  0  0
   10.7729   -2.8306    1.8666 H   0  0  0  0  0  0  0  0  0  0  0  0
    6.5492   -2.7036    4.4807 H   0  0  0  0  0  0  0  0  0  0  0  0
    6.6897   -5.7072   -0.9999 H   0  0  0  0  0  0  0  0  0  0  0  0
    3.3173   -3.5691   -2.9601 H   0  0  0  0  0  0  0  0  0  0  0  0
    1.0576   -3.5112   -2.8279 H   0  0  0  0  0  0  0  0  0  0  0  0
    1.8069   -2.7715   -4.2876 H   0  0  0  0  0  0  0  0  0  0  0  0
   -3.0639   -4.7881   -3.0156 H   0  0  0  0  0  0  0  0  0  0  0  0
   -5.0648   -6.1924   -3.1384 H   0  0  0  0  0  0  0  0  0  0  0  0
   -6.9230   -6.6383   -4.2224 H   0  0  0  0  0  0  0  0  0  0  0  0
   -7.6796   -5.7053   -6.6760 H   0  0  0  0  0  0  0  0  0  0  0  0
   -7.9678   -4.9978   -8.2540 H   0  0  0  0  0  0  0  0  0  0  0  0
   -3.9848   -3.1004   -6.8710 H   0  0  0  0  0  0  0  0  0  0  0  0
   -2.8657   -1.1134   -5.9040 H   0  0  0  0  0  0  0  0  0  0  0  0
  1  2  1  0  0  0  0
  1 39  1  0  0  0  0
  1 40  1  0  0  0  0
  1 41  1  0  0  0  0
  2  3  1  0  0  0  0
  3  4  1  0  0  0  0
  3 21  2  0  0  0  0
  4  5  2  0  0  0  0
  4 42  1  0  0  0  0
  5  6  1  0  0  0  0
  5 19  1  0  0  0  0
  6  7  1  0  0  0  0
  6 16  2  0  0  0  0
  7  8  1  0  0  0  0
  7 43  1  0  0  0  0
  8  9  1  0  0  0  0
  8 15  2  0  0  0  0
  9 10  2  0  0  0  0
  9 44  1  0  0  0  0
 10 11  1  0  0  0  0
 10 45  1  0  0  0  0
 11 12  1  0  0  0  0
 11 13  2  0  0  0  0
 13 14  1  0  0  0  0
 13 15  1  0  0  0  0
 15 46  1  0  0  0  0
 16 17  1  0  0  0  0
 17 18  2  0  0  0  0
 17 47  1  0  0  0  0
 18 19  1  0  0  0  0
 19 20  2  0  0  0  0
 20 21  1  0  0  0  0
 20 48  1  0  0  0  0
 21 22  1  0  0  0  0
 22 23  1  0  0  0  0
 23 24  1  0  0  0  0
 23 49  1  0  0  0  0
 23 50  1  0  0  0  0
 24 25  2  0  0  0  0
 24 38  1  0  0  0  0
 25 26  1  0  0  0  0
 26 27  1  0  0  0  0
 26 37  2  0  0  0  0
 27 28  1  0  0  0  0
 27 36  2  0  0  0  0
 28 29  2  0  0  0  0
 28 51  1  0  0  0  0
 29 30  1  0  0  0  0
 29 52  1  0  0  0  0
 30 31  1  0  0  0  0
 30 32  2  0  0  0  0
 31 53  1  0  0  0  0
 32 33  1  0  0  0  0
 32 36  1  0  0  0  0
 33 34  1  0  0  0  0
 33 35  2  0  0  0  0
 34 54  1  0  0  0  0
 34 55  1  0  0  0  0
 36 56  1  0  0  0  0
 37 38  1  0  0  0  0
 37 57  1  0  0  0  0
M  END
$$$$
