CHEMBL3937516
 OpenBabel04072215373D

 59 62  0  0  0  0  0  0  0  0999 V2000
    3.3949   -0.8257    1.0411 C   0  0  0  0  0  0  0  0  0  0  0  0
    2.5025   -0.0110    0.2693 O   0  0  0  0  0  0  0  0  0  0  0  0
    3.0885    0.7332   -0.7212 C   0  0  0  0  0  0  0  0  0  0  0  0
    4.2003    0.2314   -1.4098 C   0  0  0  0  0  0  0  0  0  0  0  0
    4.9362    1.0083   -2.2766 C   0  0  0  0  0  0  0  0  0  0  0  0
    6.0609    0.4926   -2.7662 N   0  0  0  0  0  0  0  0  0  0  0  0
    6.7971    1.3038   -3.5218 C   0  0  0  0  0  0  0  0  0  0  0  0
    6.5053    2.5723   -3.8189 N   0  0  0  0  0  0  0  0  0  0  0  0
    5.3456    3.0723   -3.3531 C   0  0  0  0  0  0  0  0  0  0  0  0
    4.9864    4.4186   -3.6537 N   0  0  0  0  0  0  0  0  0  0  0  0
    5.6559    5.2912   -4.5493 C   0  0  0  0  0  0  0  0  0  0  0  0
    6.3771    4.7998   -5.6474 C   0  0  0  0  0  0  0  0  0  0  0  0
    7.0925    5.6344   -6.5064 C   0  0  0  0  0  0  0  0  0  0  0  0
    7.0129    6.9940   -6.2421 C   0  0  0  0  0  0  0  0  0  0  0  0
    7.6702    7.9661   -6.9277 O   0  0  0  0  0  0  0  0  0  0  0  0
    7.3301    9.1493   -6.3554 C   0  0  0  0  0  0  0  0  0  0  0  0
    6.4318    8.9526   -5.3312 C   0  0  0  0  0  0  0  0  0  0  0  0
    6.2423    7.5495   -5.2279 C   0  0  0  0  0  0  0  0  0  0  0  0
    5.5211    6.6842   -4.3807 C   0  0  0  0  0  0  0  0  0  0  0  0
    4.4869    2.3024   -2.5568 C   0  0  0  0  0  0  0  0  0  0  0  0
    3.2521    2.7454   -2.0303 C   0  0  0  0  0  0  0  0  0  0  0  0
    2.5733    1.9896   -1.0777 C   0  0  0  0  0  0  0  0  0  0  0  0
    1.4429    2.6106   -0.5966 O   0  0  0  0  0  0  0  0  0  0  0  0
    1.2535    2.4525    0.8050 C   0  0  0  0  0  0  0  0  0  0  0  0
    0.1829    3.3996    1.3465 C   0  0  0  0  0  0  0  0  0  0  0  0
    0.0335    3.0965    2.8405 C   0  0  0  0  0  0  0  0  0  0  0  0
   -1.0390    3.9188    3.5375 C   0  0  0  0  0  0  0  0  0  0  0  0
   -1.1143    3.5321    5.0180 C   0  0  0  0  0  0  0  0  0  0  0  0
   -2.1858    4.3437    5.7343 C   0  0  0  0  0  0  0  0  0  0  0  0
   -2.3086    3.9807    7.1972 C   0  0  0  0  0  0  0  0  0  0  0  0
   -1.6297    3.1341    7.7720 O   0  0  0  0  0  0  0  0  0  0  0  0
   -3.2917    4.6942    7.8428 N   0  0  0  0  0  0  0  0  0  0  0  0
   -3.4056    4.4606    9.2324 O   0  0  0  0  0  0  0  0  0  0  0  0
    3.1465   -0.7067    2.0986 H   0  0  0  0  0  0  0  0  0  0  0  0
    4.4549   -0.5560    0.9414 H   0  0  0  0  0  0  0  0  0  0  0  0
    3.2570   -1.8760    0.7640 H   0  0  0  0  0  0  0  0  0  0  0  0
    4.5481   -0.7836   -1.2372 H   0  0  0  0  0  0  0  0  0  0  0  0
    7.7234    0.9084   -3.9189 H   0  0  0  0  0  0  0  0  0  0  0  0
    4.7296    4.8964   -2.8009 H   0  0  0  0  0  0  0  0  0  0  0  0
    6.4162    3.7307   -5.8452 H   0  0  0  0  0  0  0  0  0  0  0  0
    7.6885    5.2412   -7.3171 H   0  0  0  0  0  0  0  0  0  0  0  0
    7.8076   10.0209   -6.7792 H   0  0  0  0  0  0  0  0  0  0  0  0
    5.9978    9.7241   -4.7120 H   0  0  0  0  0  0  0  0  0  0  0  0
    4.9090    7.0992   -3.5866 H   0  0  0  0  0  0  0  0  0  0  0  0
    2.8389    3.7081   -2.3252 H   0  0  0  0  0  0  0  0  0  0  0  0
    2.1969    2.6508    1.3297 H   0  0  0  0  0  0  0  0  0  0  0  0
    0.9092    1.4358    1.0060 H   0  0  0  0  0  0  0  0  0  0  0  0
   -0.7659    3.2459    0.8190 H   0  0  0  0  0  0  0  0  0  0  0  0
    0.4618    4.4476    1.1825 H   0  0  0  0  0  0  0  0  0  0  0  0
    0.9979    3.2676    3.3370 H   0  0  0  0  0  0  0  0  0  0  0  0
   -0.2013    2.0320    2.9638 H   0  0  0  0  0  0  0  0  0  0  0  0
   -2.0103    3.7438    3.0600 H   0  0  0  0  0  0  0  0  0  0  0  0
   -0.8121    4.9866    3.4434 H   0  0  0  0  0  0  0  0  0  0  0  0
   -0.1402    3.6944    5.4972 H   0  0  0  0  0  0  0  0  0  0  0  0
   -1.3331    2.4606    5.1132 H   0  0  0  0  0  0  0  0  0  0  0  0
   -3.1577    4.1685    5.2597 H   0  0  0  0  0  0  0  0  0  0  0  0
   -1.9515    5.4115    5.6611 H   0  0  0  0  0  0  0  0  0  0  0  0
   -3.6387    5.5844    7.5023 H   0  0  0  0  0  0  0  0  0  0  0  0
   -2.7513    3.7417    9.3778 H   0  0  0  0  0  0  0  0  0  0  0  0
  1  2  1  0  0  0  0
  1 34  1  0  0  0  0
  1 35  1  0  0  0  0
  1 36  1  0  0  0  0
  2  3  1  0  0  0  0
  3  4  1  0  0  0  0
  3 22  2  0  0  0  0
  4  5  2  0  0  0  0
  4 37  1  0  0  0  0
  5  6  1  0  0  0  0
  5 20  1  0  0  0  0
  6  7  2  0  0  0  0
  7  8  1  0  0  0  0
  7 38  1  0  0  0  0
  8  9  2  0  0  0  0
  9 10  1  0  0  0  0
  9 20  1  0  0  0  0
 10 11  1  0  0  0  0
 10 39  1  0  0  0  0
 11 12  1  0  0  0  0
 11 19  2  0  0  0  0
 12 13  2  0  0  0  0
 12 40  1  0  0  0  0
 13 14  1  0  0  0  0
 13 41  1  0  0  0  0
 14 15  1  0  0  0  0
 14 18  2  0  0  0  0
 15 16  1  0  0  0  0
 16 17  2  0  0  0  0
 16 42  1  0  0  0  0
 17 18  1  0  0  0  0
 17 43  1  0  0  0  0
 18 19  1  0  0  0  0
 19 44  1  0  0  0  0
 20 21  2  0  0  0  0
 21 22  1  0  0  0  0
 21 45  1  0  0  0  0
 22 23  1  0  0  0  0
 23 24  1  0  0  0  0
 24 25  1  0  0  0  0
 24 46  1  0  0  0  0
 24 47  1  0  0  0  0
 25 26  1  0  0  0  0
 25 48  1  0  0  0  0
 25 49  1  0  0  0  0
 26 27  1  0  0  0  0
 26 50  1  0  0  0  0
 26 51  1  0  0  0  0
 27 28  1  0  0  0  0
 27 52  1  0  0  0  0
 27 53  1  0  0  0  0
 28 29  1  0  0  0  0
 28 54  1  0  0  0  0
 28 55  1  0  0  0  0
 29 30  1  0  0  0  0
 29 56  1  0  0  0  0
 29 57  1  0  0  0  0
 30 31  2  0  0  0  0
 30 32  1  0  0  0  0
 32 33  1  0  0  0  0
 32 58  1  0  0  0  0
 33 59  1  0  0  0  0
M  END
$$$$
