CHEMBL363607
 OpenBabel04072215373D

 43 45  0  0  0  0  0  0  0  0999 V2000
    1.2294    0.3596   -0.4661 C   0  0  0  0  0  0  0  0  0  0  0  0
    2.7189    0.2301   -0.3695 C   0  0  0  0  0  0  0  0  0  0  0  0
    3.5743    1.3183   -0.5664 C   0  0  0  0  0  0  0  0  0  0  0  0
    4.9587    1.1476   -0.4719 C   0  0  0  0  0  0  0  0  0  0  0  0
    5.4919   -0.1121   -0.2055 C   0  0  0  0  0  0  0  0  0  0  0  0
    6.8244   -0.2416   -0.1457 F   0  0  0  0  0  0  0  0  0  0  0  0
    4.6535   -1.2017   -0.0104 C   0  0  0  0  0  0  0  0  0  0  0  0
    5.1926   -2.5185    0.3562 C   0  0  0  0  0  0  0  0  0  0  0  0
    6.1504   -2.5827    1.1226 O   0  0  0  0  0  0  0  0  0  0  0  0
    4.6215   -3.7245   -0.0745 N   0  0  0  0  0  0  0  0  0  0  0  0
    3.8369   -3.7752   -1.1887 N   0  0  0  0  0  0  0  0  0  0  0  0
    3.4732   -5.0556   -1.2223 C   0  0  0  0  0  0  0  0  0  0  0  0
    2.6490   -5.6214   -2.1268 N   0  0  0  0  0  0  0  0  0  0  0  0
    2.4345   -7.0006   -2.3174 C   0  0  0  0  0  0  0  0  0  0  0  0
    1.1584   -7.4884   -2.6255 C   0  0  0  0  0  0  0  0  0  0  0  0
    0.9004   -8.8647   -2.5908 C   0  0  0  0  0  0  0  0  0  0  0  0
    1.9280   -9.7550   -2.2591 C   0  0  0  0  0  0  0  0  0  0  0  0
    1.5887  -11.4760   -2.0711 S   0  0  0  0  0  0  0  0  0  0  0  0
    1.8230  -12.0343   -3.6339 N   0  0  0  0  0  0  0  0  0  0  0  0
    2.6254  -12.0920   -1.2735 O   0  0  0  0  0  0  0  0  0  0  0  0
    0.1857  -11.6583   -1.7880 O   0  0  0  0  0  0  0  0  0  0  0  0
    3.2116   -9.2921   -1.9961 C   0  0  0  0  0  0  0  0  0  0  0  0
    3.4546   -7.9253   -2.0359 C   0  0  0  0  0  0  0  0  0  0  0  0
    3.9758   -5.8058   -0.1954 N   0  0  0  0  0  0  0  0  0  0  0  0
    4.7058   -4.9701    0.5022 C   0  0  0  0  0  0  0  0  0  0  0  0
    5.4140   -5.2753    1.7645 C   0  0  0  0  0  0  0  0  0  0  0  0
    3.2727   -1.0137   -0.0608 C   0  0  0  0  0  0  0  0  0  0  0  0
    2.4372   -2.0164    0.2515 F   0  0  0  0  0  0  0  0  0  0  0  0
    0.9315    1.3740   -0.7459 H   0  0  0  0  0  0  0  0  0  0  0  0
    0.7660    0.1174    0.4957 H   0  0  0  0  0  0  0  0  0  0  0  0
    0.8449   -0.3260   -1.2296 H   0  0  0  0  0  0  0  0  0  0  0  0
    3.1702    2.3052   -0.7811 H   0  0  0  0  0  0  0  0  0  0  0  0
    5.6284    1.9932   -0.6030 H   0  0  0  0  0  0  0  0  0  0  0  0
    2.0945   -5.0070   -2.7049 H   0  0  0  0  0  0  0  0  0  0  0  0
    0.3394   -6.8028   -2.8302 H   0  0  0  0  0  0  0  0  0  0  0  0
   -0.1049   -9.2306   -2.7853 H   0  0  0  0  0  0  0  0  0  0  0  0
    2.6024  -12.6907   -3.6505 H   0  0  0  0  0  0  0  0  0  0  0  0
    0.9475  -12.4120   -3.9952 H   0  0  0  0  0  0  0  0  0  0  0  0
    4.0180   -9.9678   -1.7245 H   0  0  0  0  0  0  0  0  0  0  0  0
    4.4577   -7.5739   -1.8030 H   0  0  0  0  0  0  0  0  0  0  0  0
    5.1508   -6.2805    2.1103 H   0  0  0  0  0  0  0  0  0  0  0  0
    5.1313   -4.5737    2.5554 H   0  0  0  0  0  0  0  0  0  0  0  0
    6.4969   -5.2408    1.6197 H   0  0  0  0  0  0  0  0  0  0  0  0
  1  2  1  0  0  0  0
  1 29  1  0  0  0  0
  1 30  1  0  0  0  0
  1 31  1  0  0  0  0
  2  3  1  0  0  0  0
  2 27  2  0  0  0  0
  3  4  2  0  0  0  0
  3 32  1  0  0  0  0
  4  5  1  0  0  0  0
  4 33  1  0  0  0  0
  5  6  1  0  0  0  0
  5  7  2  0  0  0  0
  7  8  1  0  0  0  0
  7 27  1  0  0  0  0
  8  9  2  0  0  0  0
  8 10  1  0  0  0  0
 10 11  1  0  0  0  0
 10 25  1  0  0  0  0
 11 12  2  0  0  0  0
 12 13  1  0  0  0  0
 12 24  1  0  0  0  0
 13 14  1  0  0  0  0
 13 34  1  0  0  0  0
 14 15  1  0  0  0  0
 14 23  2  0  0  0  0
 15 16  2  0  0  0  0
 15 35  1  0  0  0  0
 16 17  1  0  0  0  0
 16 36  1  0  0  0  0
 17 18  1  0  0  0  0
 17 22  2  0  0  0  0
 18 19  1  0  0  0  0
 18 20  2  0  0  0  0
 18 21  2  0  0  0  0
 19 37  1  0  0  0  0
 19 38  1  0  0  0  0
 22 23  1  0  0  0  0
 22 39  1  0  0  0  0
 23 40  1  0  0  0  0
 24 25  2  0  0  0  0
 25 26  1  0  0  0  0
 26 41  1  0  0  0  0
 26 42  1  0  0  0  0
 26 43  1  0  0  0  0
 27 28  1  0  0  0  0
M  END
$$$$
