CHEMBL3944702
 OpenBabel04072215373D

 60 63  0  0  1  0  0  0  0  0999 V2000
    8.0044    5.0292   -4.4112 C   0  0  0  0  0  0  0  0  0  0  0  0
    8.0832    4.1393   -3.3048 O   0  0  0  0  0  0  0  0  0  0  0  0
    6.9049    3.8386   -2.6723 C   0  0  0  0  0  0  0  0  0  0  0  0
    7.0235    3.7556   -1.2795 C   0  0  0  0  0  0  0  0  0  0  0  0
    5.9442    3.3737   -0.4648 C   0  0  0  0  0  0  0  0  0  0  0  0
    6.1167    3.1168    0.9246 N   0  0  0  0  0  0  0  0  0  0  0  0
    6.9848    3.7948    1.8081 C   0  0  0  0  0  0  0  0  0  0  0  0
    7.3335    5.0612    1.4888 N   0  0  0  0  0  0  0  0  0  0  0  0
    8.0510    5.7387    2.3789 C   0  0  0  0  0  0  0  0  0  0  0  0
    8.4505    5.2835    3.5674 N   0  0  0  0  0  0  0  0  0  0  0  0
    8.1046    4.0290    3.8722 C   0  0  0  0  0  0  0  0  0  0  0  0
    8.5590    3.5410    5.0832 C   0  0  0  0  0  0  0  0  0  0  0  0
    8.3713    2.2117    5.4992 C   0  0  0  0  0  0  0  0  0  0  0  0
    8.9895    1.6931    6.6240 O   0  0  0  0  0  0  0  0  0  0  0  0
   10.0433    2.5310    7.1296 C   0  0  0  0  0  0  0  0  0  0  0  0
   10.9472    1.8833    8.1865 C   0  0  3  0  0  0  0  0  0  0  0  0
   10.2608    1.6555    9.5460 C   0  0  0  0  0  0  0  0  0  0  0  0
    9.9170    2.9332   10.2081 N   0  0  0  0  0  0  0  0  0  0  0  0
    9.2892    2.6910   11.5046 C   0  0  0  0  0  0  0  0  0  0  0  0
   11.1442    3.7410   10.3638 C   0  0  0  0  0  0  0  0  0  0  0  0
   11.8608    3.9406    9.0201 C   0  0  0  0  0  0  0  0  0  0  0  0
   12.1421    2.6866    8.3753 O   0  0  0  0  0  0  0  0  0  0  0  0
    7.5844    1.3819    4.6975 C   0  0  0  0  0  0  0  0  0  0  0  0
    7.3627    0.0506    4.9343 O   0  0  0  0  0  0  0  0  0  0  0  0
    6.6259   -0.2005    6.1280 C   0  0  0  0  0  0  0  0  0  0  0  0
    7.0948    1.8669    3.4730 C   0  0  0  0  0  0  0  0  0  0  0  0
    7.3629    3.1999    3.0350 C   0  0  0  0  0  0  0  0  0  0  0  0
    4.7220    3.0367   -1.0772 C   0  0  0  0  0  0  0  0  0  0  0  0
    3.7169    2.6314   -0.2320 O   0  0  0  0  0  0  0  0  0  0  0  0
    2.6157    1.9515   -0.8209 C   0  0  0  0  0  0  0  0  0  0  0  0
    4.5935    3.1293   -2.4639 C   0  0  0  0  0  0  0  0  0  0  0  0
    5.6827    3.5033   -3.2634 C   0  0  0  0  0  0  0  0  0  0  0  0
    5.4267    3.4009   -4.9709 Cl  0  0  0  0  0  0  0  0  0  0  0  0
    8.9728    5.5310   -4.5030 H   0  0  0  0  0  0  0  0  0  0  0  0
    7.2387    5.8008   -4.2780 H   0  0  0  0  0  0  0  0  0  0  0  0
    7.8553    4.4702   -5.3383 H   0  0  0  0  0  0  0  0  0  0  0  0
    7.9889    3.9735   -0.8266 H   0  0  0  0  0  0  0  0  0  0  0  0
    6.1872    2.1097    1.0315 H   0  0  0  0  0  0  0  0  0  0  0  0
    8.3402    6.7501    2.1211 H   0  0  0  0  0  0  0  0  0  0  0  0
    9.1207    4.2496    5.6814 H   0  0  0  0  0  0  0  0  0  0  0  0
    9.5886    3.4333    7.5538 H   0  0  0  0  0  0  0  0  0  0  0  0
   10.7057    2.8195    6.3020 H   0  0  0  0  0  0  0  0  0  0  0  0
   11.2842    0.9112    7.8075 H   0  0  0  0  0  0  0  0  0  0  0  0
   10.9508    1.0907   10.1892 H   0  0  0  0  0  0  0  0  0  0  0  0
    9.3616    1.0459    9.4046 H   0  0  0  0  0  0  0  0  0  0  0  0
    8.3723    2.1053   11.3803 H   0  0  0  0  0  0  0  0  0  0  0  0
    8.9983    3.6383   11.9709 H   0  0  0  0  0  0  0  0  0  0  0  0
    9.9505    2.1545   12.1941 H   0  0  0  0  0  0  0  0  0  0  0  0
   11.8351    3.2474   11.0592 H   0  0  0  0  0  0  0  0  0  0  0  0
   10.8940    4.7241   10.7800 H   0  0  0  0  0  0  0  0  0  0  0  0
   12.8178    4.4467    9.1857 H   0  0  0  0  0  0  0  0  0  0  0  0
   11.2792    4.5849    8.3504 H   0  0  0  0  0  0  0  0  0  0  0  0
    6.3922   -1.2702    6.1534 H   0  0  0  0  0  0  0  0  0  0  0  0
    5.6740    0.3452    6.1365 H   0  0  0  0  0  0  0  0  0  0  0  0
    7.2080    0.0271    7.0249 H   0  0  0  0  0  0  0  0  0  0  0  0
    6.5358    1.1792    2.8450 H   0  0  0  0  0  0  0  0  0  0  0  0
    1.9542    1.6230   -0.0143 H   0  0  0  0  0  0  0  0  0  0  0  0
    2.9547    1.0615   -1.3612 H   0  0  0  0  0  0  0  0  0  0  0  0
    2.0366    2.6142   -1.4719 H   0  0  0  0  0  0  0  0  0  0  0  0
    3.6583    2.8845   -2.9546 H   0  0  0  0  0  0  0  0  0  0  0  0
  1  2  1  0  0  0  0
  1 34  1  0  0  0  0
  1 35  1  0  0  0  0
  1 36  1  0  0  0  0
  2  3  1  0  0  0  0
  3  4  1  0  0  0  0
  3 32  2  0  0  0  0
  4  5  2  0  0  0  0
  4 37  1  0  0  0  0
  5  6  1  0  0  0  0
  5 28  1  0  0  0  0
  6  7  1  0  0  0  0
  6 38  1  0  0  0  0
  7  8  1  0  0  0  0
  7 27  2  0  0  0  0
  8  9  2  0  0  0  0
  9 10  1  0  0  0  0
  9 39  1  0  0  0  0
 10 11  2  0  0  0  0
 11 12  1  0  0  0  0
 11 27  1  0  0  0  0
 12 13  2  0  0  0  0
 12 40  1  0  0  0  0
 13 14  1  0  0  0  0
 13 23  1  0  0  0  0
 14 15  1  0  0  0  0
 15 16  1  0  0  0  0
 15 41  1  0  0  0  0
 15 42  1  0  0  0  0
 16 17  1  0  0  0  0
 16 22  1  0  0  0  0
 16 43  1  0  0  0  0
 17 18  1  0  0  0  0
 17 44  1  0  0  0  0
 17 45  1  0  0  0  0
 18 19  1  0  0  0  0
 18 20  1  0  0  0  0
 19 46  1  0  0  0  0
 19 47  1  0  0  0  0
 19 48  1  0  0  0  0
 20 21  1  0  0  0  0
 20 49  1  0  0  0  0
 20 50  1  0  0  0  0
 21 22  1  0  0  0  0
 21 51  1  0  0  0  0
 21 52  1  0  0  0  0
 23 24  1  0  0  0  0
 23 26  2  0  0  0  0
 24 25  1  0  0  0  0
 25 53  1  0  0  0  0
 25 54  1  0  0  0  0
 25 55  1  0  0  0  0
 26 27  1  0  0  0  0
 26 56  1  0  0  0  0
 28 29  1  0  0  0  0
 28 31  2  0  0  0  0
 29 30  1  0  0  0  0
 30 57  1  0  0  0  0
 30 58  1  0  0  0  0
 30 59  1  0  0  0  0
 31 32  1  0  0  0  0
 31 60  1  0  0  0  0
 32 33  1  0  0  0  0
M  END
$$$$
