CHEMBL3891525
 OpenBabel04072215373D

 52 55  0  0  0  0  0  0  0  0999 V2000
    1.3456    0.0656   -0.5410 C   0  0  0  0  0  0  0  0  0  0  0  0
    2.4196   -0.3711    0.2885 O   0  0  0  0  0  0  0  0  0  0  0  0
    3.1239   -1.4668   -0.1385 C   0  0  0  0  0  0  0  0  0  0  0  0
    2.7420   -2.3224   -1.1590 C   0  0  0  0  0  0  0  0  0  0  0  0
    3.5498   -3.4135   -1.4863 C   0  0  0  0  0  0  0  0  0  0  0  0
    3.2683   -4.3377   -2.4581 O   0  0  0  0  0  0  0  0  0  0  0  0
    2.1656   -4.0407   -3.3072 C   0  0  0  0  0  0  0  0  0  0  0  0
    4.7587   -3.6362   -0.8051 C   0  0  0  0  0  0  0  0  0  0  0  0
    5.2163   -2.7671    0.1850 C   0  0  0  0  0  0  0  0  0  0  0  0
    6.4714   -2.9532    0.8242 N   0  0  0  0  0  0  0  0  0  0  0  0
    6.9292   -1.8728    1.7442 C   0  0  0  0  0  0  0  0  0  0  0  0
    7.5016   -0.6810    0.9842 C   0  0  0  0  0  0  0  0  0  0  0  0
    8.0133    0.2040    1.8839 F   0  0  0  0  0  0  0  0  0  0  0  0
    7.5314   -3.9058    0.6146 C   0  0  0  0  0  0  0  0  0  0  0  0
    8.0581   -4.4821    1.7770 C   0  0  0  0  0  0  0  0  0  0  0  0
    9.3384   -4.9895    1.7854 C   0  0  0  0  0  0  0  0  0  0  0  0
   10.0812   -5.0732    0.6378 C   0  0  0  0  0  0  0  0  0  0  0  0
   11.3531   -5.4334    0.8471 N   0  0  0  0  0  0  0  0  0  0  0  0
   12.0874   -5.6658   -0.2430 C   0  0  0  0  0  0  0  0  0  0  0  0
   11.5532   -5.6233   -1.5131 C   0  0  0  0  0  0  0  0  0  0  0  0
   12.4023   -6.1965   -2.5591 C   0  0  0  0  0  0  0  0  0  0  0  0
   12.4685   -7.5380   -3.0266 C   0  0  0  0  0  0  0  0  0  0  0  0
   13.5560   -7.7825   -3.7687 N   0  0  0  0  0  0  0  0  0  0  0  0
   14.2025   -6.6054   -3.7697 N   0  0  0  0  0  0  0  0  0  0  0  0
   15.3167   -6.3816   -4.6606 C   0  0  0  0  0  0  0  0  0  0  0  0
   13.6351   -5.6836   -2.9324 C   0  0  0  0  0  0  0  0  0  0  0  0
   10.2754   -5.1708   -1.7464 N   0  0  0  0  0  0  0  0  0  0  0  0
    9.5060   -4.8153   -0.6398 C   0  0  0  0  0  0  0  0  0  0  0  0
    8.2159   -4.1849   -0.5991 C   0  0  0  0  0  0  0  0  0  0  0  0
    4.3272   -1.7155    0.5398 C   0  0  0  0  0  0  0  0  0  0  0  0
    0.9768    1.0202   -0.1526 H   0  0  0  0  0  0  0  0  0  0  0  0
    0.5138   -0.6461   -0.5161 H   0  0  0  0  0  0  0  0  0  0  0  0
    1.6856    0.2372   -1.5681 H   0  0  0  0  0  0  0  0  0  0  0  0
    1.8151   -2.1474   -1.6905 H   0  0  0  0  0  0  0  0  0  0  0  0
    2.1197   -4.8094   -4.0823 H   0  0  0  0  0  0  0  0  0  0  0  0
    2.2972   -3.0737   -3.8022 H   0  0  0  0  0  0  0  0  0  0  0  0
    1.2188   -4.0773   -2.7555 H   0  0  0  0  0  0  0  0  0  0  0  0
    5.3399   -4.5154   -1.0663 H   0  0  0  0  0  0  0  0  0  0  0  0
    7.7131   -2.2007    2.4381 H   0  0  0  0  0  0  0  0  0  0  0  0
    6.1409   -1.5642    2.4403 H   0  0  0  0  0  0  0  0  0  0  0  0
    6.7406   -0.1625    0.3978 H   0  0  0  0  0  0  0  0  0  0  0  0
    8.3110   -0.9890    0.3174 H   0  0  0  0  0  0  0  0  0  0  0  0
    7.5193   -4.4049    2.7182 H   0  0  0  0  0  0  0  0  0  0  0  0
    9.7870   -5.2821    2.7298 H   0  0  0  0  0  0  0  0  0  0  0  0
   13.1205   -5.9334   -0.0534 H   0  0  0  0  0  0  0  0  0  0  0  0
   11.7980   -8.3615   -2.8141 H   0  0  0  0  0  0  0  0  0  0  0  0
   15.4932   -7.2729   -5.2689 H   0  0  0  0  0  0  0  0  0  0  0  0
   16.2072   -6.1383   -4.0766 H   0  0  0  0  0  0  0  0  0  0  0  0
   15.0458   -5.5446   -5.3101 H   0  0  0  0  0  0  0  0  0  0  0  0
   14.1437   -4.7606   -2.6920 H   0  0  0  0  0  0  0  0  0  0  0  0
    7.7934   -3.8408   -1.5447 H   0  0  0  0  0  0  0  0  0  0  0  0
    4.5366   -1.0381    1.3621 H   0  0  0  0  0  0  0  0  0  0  0  0
  1  2  1  0  0  0  0
  1 31  1  0  0  0  0
  1 32  1  0  0  0  0
  1 33  1  0  0  0  0
  2  3  1  0  0  0  0
  3  4  1  0  0  0  0
  3 30  2  0  0  0  0
  4  5  2  0  0  0  0
  4 34  1  0  0  0  0
  5  6  1  0  0  0  0
  5  8  1  0  0  0  0
  6  7  1  0  0  0  0
  7 35  1  0  0  0  0
  7 36  1  0  0  0  0
  7 37  1  0  0  0  0
  8  9  2  0  0  0  0
  8 38  1  0  0  0  0
  9 10  1  0  0  0  0
  9 30  1  0  0  0  0
 10 11  1  0  0  0  0
 10 14  1  0  0  0  0
 11 12  1  0  0  0  0
 11 39  1  0  0  0  0
 11 40  1  0  0  0  0
 12 13  1  0  0  0  0
 12 41  1  0  0  0  0
 12 42  1  0  0  0  0
 14 15  1  0  0  0  0
 14 29  2  0  0  0  0
 15 16  2  0  0  0  0
 15 43  1  0  0  0  0
 16 17  1  0  0  0  0
 16 44  1  0  0  0  0
 17 18  1  0  0  0  0
 17 28  2  0  0  0  0
 18 19  2  0  0  0  0
 19 20  1  0  0  0  0
 19 45  1  0  0  0  0
 20 21  1  0  0  0  0
 20 27  2  0  0  0  0
 21 22  1  0  0  0  0
 21 26  2  0  0  0  0
 22 23  2  0  0  0  0
 22 46  1  0  0  0  0
 23 24  1  0  0  0  0
 24 25  1  0  0  0  0
 24 26  1  0  0  0  0
 25 47  1  0  0  0  0
 25 48  1  0  0  0  0
 25 49  1  0  0  0  0
 26 50  1  0  0  0  0
 27 28  1  0  0  0  0
 28 29  1  0  0  0  0
 29 51  1  0  0  0  0
 30 52  1  0  0  0  0
M  END
$$$$
