CHEMBL193136
 OpenBabel04072215363D

 52 55  0  0  0  0  0  0  0  0999 V2000
   -0.9311    5.9007   -8.6754 C   0  0  0  0  0  0  0  0  0  0  0  0
   -1.4001    5.3738   -7.4359 O   0  0  0  0  0  0  0  0  0  0  0  0
   -0.3082    4.7692   -6.7661 N   0  0  0  0  0  0  0  0  0  0  0  0
    0.3526    5.5966   -5.8843 C   0  0  0  0  0  0  0  0  0  0  0  0
    0.2168    6.8160   -5.8322 O   0  0  0  0  0  0  0  0  0  0  0  0
    1.3138    4.9489   -4.9628 C   0  0  0  0  0  0  0  0  0  0  0  0
    2.3901    5.7175   -4.4972 C   0  0  0  0  0  0  0  0  0  0  0  0
    3.2871    5.2077   -3.5525 C   0  0  0  0  0  0  0  0  0  0  0  0
    4.3731    5.9626   -3.0750 N   0  0  0  0  0  0  0  0  0  0  0  0
    5.0377    6.9698   -3.7343 C   0  0  0  0  0  0  0  0  0  0  0  0
    5.1144    6.9082   -5.0369 N   0  0  0  0  0  0  0  0  0  0  0  0
    5.8192    7.8446   -5.7337 C   0  0  0  0  0  0  0  0  0  0  0  0
    6.4661    8.8435   -5.2353 N   0  0  0  0  0  0  0  0  0  0  0  0
    6.3768    8.9374   -3.9013 N   0  0  0  0  0  0  0  0  0  0  0  0
    6.9407    9.9391   -3.1828 C   0  0  0  0  0  0  0  0  0  0  0  0
    6.5704    9.7895   -1.8673 C   0  0  0  0  0  0  0  0  0  0  0  0
    6.9367   10.7391   -0.8094 C   0  0  0  0  0  0  0  0  0  0  0  0
    8.0256   11.5189   -0.8579 N   0  0  0  0  0  0  0  0  0  0  0  0
    7.9026   12.2301    0.2708 N   0  0  0  0  0  0  0  0  0  0  0  0
    6.7698   11.8929    0.9522 C   0  0  0  0  0  0  0  0  0  0  0  0
    6.3710   12.5142    2.2310 C   0  0  0  0  0  0  0  0  0  0  0  0
    6.1361   10.9557    0.2822 N   0  0  0  0  0  0  0  0  0  0  0  0
    5.7703    8.5861   -1.7650 C   0  0  0  0  0  0  0  0  0  0  0  0
    5.1512    8.0875   -0.4698 C   0  0  0  0  0  0  0  0  0  0  0  0
    3.6237    8.0788   -0.4968 C   0  0  0  0  0  0  0  0  0  0  0  0
    5.7547    6.7888    0.0637 C   0  0  0  0  0  0  0  0  0  0  0  0
    5.6916    8.0813   -3.0742 C   0  0  0  0  0  0  0  0  0  0  0  0
    3.0984    3.8873   -3.1167 C   0  0  0  0  0  0  0  0  0  0  0  0
    3.9450    3.3634   -2.2164 F   0  0  0  0  0  0  0  0  0  0  0  0
    2.0530    3.0981   -3.5908 C   0  0  0  0  0  0  0  0  0  0  0  0
    1.1634    3.6388   -4.5123 C   0  0  0  0  0  0  0  0  0  0  0  0
    0.1486    2.8763   -4.9463 F   0  0  0  0  0  0  0  0  0  0  0  0
   -1.7741    6.3694   -9.1897 H   0  0  0  0  0  0  0  0  0  0  0  0
   -0.5355    5.0972   -9.3039 H   0  0  0  0  0  0  0  0  0  0  0  0
   -0.1617    6.6620   -8.5105 H   0  0  0  0  0  0  0  0  0  0  0  0
   -0.4236    3.7813   -6.5615 H   0  0  0  0  0  0  0  0  0  0  0  0
    2.5031    6.7393   -4.8576 H   0  0  0  0  0  0  0  0  0  0  0  0
    4.6728    5.7181   -2.1474 H   0  0  0  0  0  0  0  0  0  0  0  0
    5.8404    7.7109   -6.8287 H   0  0  0  0  0  0  0  0  0  0  0  0
    7.5216   10.7090   -3.6712 H   0  0  0  0  0  0  0  0  0  0  0  0
    8.6113   12.9159    0.5045 H   0  0  0  0  0  0  0  0  0  0  0  0
    7.0284   13.3466    2.5003 H   0  0  0  0  0  0  0  0  0  0  0  0
    6.4080   11.7739    3.0360 H   0  0  0  0  0  0  0  0  0  0  0  0
    5.3479   12.8964    2.1632 H   0  0  0  0  0  0  0  0  0  0  0  0
    5.3970    8.8044    0.3171 H   0  0  0  0  0  0  0  0  0  0  0  0
    3.2144    7.4308   -1.2727 H   0  0  0  0  0  0  0  0  0  0  0  0
    3.2411    9.0903   -0.6794 H   0  0  0  0  0  0  0  0  0  0  0  0
    3.2207    7.7448    0.4657 H   0  0  0  0  0  0  0  0  0  0  0  0
    5.4942    5.9072   -0.5168 H   0  0  0  0  0  0  0  0  0  0  0  0
    5.4015    6.6046    1.0855 H   0  0  0  0  0  0  0  0  0  0  0  0
    6.8479    6.8503    0.0985 H   0  0  0  0  0  0  0  0  0  0  0  0
    1.9316    2.0805   -3.2378 H   0  0  0  0  0  0  0  0  0  0  0  0
  1  2  1  0  0  0  0
  1 33  1  0  0  0  0
  1 34  1  0  0  0  0
  1 35  1  0  0  0  0
  2  3  1  0  0  0  0
  3  4  1  0  0  0  0
  3 36  1  0  0  0  0
  4  5  2  0  0  0  0
  4  6  1  0  0  0  0
  6  7  1  0  0  0  0
  6 31  2  0  0  0  0
  7  8  2  0  0  0  0
  7 37  1  0  0  0  0
  8  9  1  0  0  0  0
  8 28  1  0  0  0  0
  9 10  1  0  0  0  0
  9 38  1  0  0  0  0
 10 11  2  0  0  0  0
 10 27  1  0  0  0  0
 11 12  1  0  0  0  0
 12 13  2  0  0  0  0
 12 39  1  0  0  0  0
 13 14  1  0  0  0  0
 14 15  1  0  0  0  0
 14 27  1  0  0  0  0
 15 16  2  0  0  0  0
 15 40  1  0  0  0  0
 16 17  1  0  0  0  0
 16 23  1  0  0  0  0
 17 18  2  0  0  0  0
 17 22  1  0  0  0  0
 18 19  1  0  0  0  0
 19 20  1  0  0  0  0
 19 41  1  0  0  0  0
 20 21  1  0  0  0  0
 20 22  2  0  0  0  0
 21 42  1  0  0  0  0
 21 43  1  0  0  0  0
 21 44  1  0  0  0  0
 23 24  1  0  0  0  0
 23 27  2  0  0  0  0
 24 25  1  0  0  0  0
 24 26  1  0  0  0  0
 24 45  1  0  0  0  0
 25 46  1  0  0  0  0
 25 47  1  0  0  0  0
 25 48  1  0  0  0  0
 26 49  1  0  0  0  0
 26 50  1  0  0  0  0
 26 51  1  0  0  0  0
 28 29  1  0  0  0  0
 28 30  2  0  0  0  0
 30 31  1  0  0  0  0
 30 52  1  0  0  0  0
 31 32  1  0  0  0  0
M  END
$$$$
