CHEMBL513031
 OpenBabel04072215383D

 42 45  0  0  0  0  0  0  0  0999 V2000
    5.1532    1.9122    1.1874 N   0  0  0  0  0  0  0  0  0  0  0  0
    4.2842    0.9325    0.7068 C   0  0  0  0  0  0  0  0  0  0  0  0
    3.0217    1.1560    0.2804 C   0  0  0  0  0  0  0  0  0  0  0  0
    2.3911    2.4787    0.2421 C   0  0  0  0  0  0  0  0  0  0  0  0
    2.5558    3.2845   -0.8841 C   0  0  0  0  0  0  0  0  0  0  0  0
    1.9362    4.5338   -0.9499 C   0  0  0  0  0  0  0  0  0  0  0  0
    1.1264    4.9960    0.0952 C   0  0  0  0  0  0  0  0  0  0  0  0
    0.4307    6.2283    0.0292 N   0  0  0  0  0  0  0  0  0  0  0  0
    0.0804    6.8434   -1.1590 C   0  0  0  0  0  0  0  0  0  0  0  0
    0.2478    6.3444   -2.2688 O   0  0  0  0  0  0  0  0  0  0  0  0
   -0.4711    8.1053   -0.9654 N   0  0  0  0  0  0  0  0  0  0  0  0
   -0.8336    8.8536   -2.1137 C   0  0  0  0  0  0  0  0  0  0  0  0
   -1.6489    8.2914   -3.1037 C   0  0  0  0  0  0  0  0  0  0  0  0
   -1.8461    8.9540   -4.3144 C   0  0  0  0  0  0  0  0  0  0  0  0
   -1.2291   10.1820   -4.5377 C   0  0  0  0  0  0  0  0  0  0  0  0
   -0.4589   10.7693   -3.5319 C   0  0  0  0  0  0  0  0  0  0  0  0
   -0.2829   10.1203   -2.3062 C   0  0  0  0  0  0  0  0  0  0  0  0
    1.0061    4.2120    1.2451 C   0  0  0  0  0  0  0  0  0  0  0  0
    1.6265    2.9544    1.3143 C   0  0  0  0  0  0  0  0  0  0  0  0
    2.2870   -0.0435   -0.2349 C   0  0  0  0  0  0  0  0  0  0  0  0
    2.7282   -1.2635   -0.2892 N   0  0  0  0  0  0  0  0  0  0  0  0
    4.0005   -1.4539    0.1714 C   0  0  0  0  0  0  0  0  0  0  0  0
    4.8008   -2.5655    0.2688 C   0  0  0  0  0  0  0  0  0  0  0  0
    4.4143   -4.3226   -0.2389 Br  0  0  0  0  0  0  0  0  0  0  0  0
    6.0015   -2.1419    0.8374 C   0  0  0  0  0  0  0  0  0  0  0  0
    6.0013   -0.8308    1.1087 N   0  0  0  0  0  0  0  0  0  0  0  0
    4.7779   -0.4005    0.6663 N   0  0  0  0  0  0  0  0  0  0  0  0
    4.6972    2.7177    1.6071 H   0  0  0  0  0  0  0  0  0  0  0  0
    5.9081    1.5114    1.7505 H   0  0  0  0  0  0  0  0  0  0  0  0
    3.1603    2.9528   -1.7263 H   0  0  0  0  0  0  0  0  0  0  0  0
    2.1061    5.1289   -1.8435 H   0  0  0  0  0  0  0  0  0  0  0  0
   -0.1037    6.5092    0.8386 H   0  0  0  0  0  0  0  0  0  0  0  0
   -0.0264    8.6241   -0.2205 H   0  0  0  0  0  0  0  0  0  0  0  0
   -2.0986    7.3120   -2.9564 H   0  0  0  0  0  0  0  0  0  0  0  0
   -2.4466    8.4902   -5.0924 H   0  0  0  0  0  0  0  0  0  0  0  0
   -1.3353   10.6725   -5.5016 H   0  0  0  0  0  0  0  0  0  0  0  0
    0.0378   11.7175   -3.7199 H   0  0  0  0  0  0  0  0  0  0  0  0
    0.3591   10.5726   -1.5570 H   0  0  0  0  0  0  0  0  0  0  0  0
    0.4044    4.5451    2.0862 H   0  0  0  0  0  0  0  0  0  0  0  0
    1.4940    2.3453    2.2061 H   0  0  0  0  0  0  0  0  0  0  0  0
    1.2665    0.1550   -0.6067 H   0  0  0  0  0  0  0  0  0  0  0  0
    6.8806   -2.7268    1.0818 H   0  0  0  0  0  0  0  0  0  0  0  0
  1  2  1  0  0  0  0
  1 28  1  0  0  0  0
  1 29  1  0  0  0  0
  2  3  2  0  0  0  0
  2 27  1  0  0  0  0
  3  4  1  0  0  0  0
  3 20  1  0  0  0  0
  4  5  1  0  0  0  0
  4 19  2  0  0  0  0
  5  6  2  0  0  0  0
  5 30  1  0  0  0  0
  6  7  1  0  0  0  0
  6 31  1  0  0  0  0
  7  8  1  0  0  0  0
  7 18  2  0  0  0  0
  8  9  1  0  0  0  0
  8 32  1  0  0  0  0
  9 10  2  0  0  0  0
  9 11  1  0  0  0  0
 11 12  1  0  0  0  0
 11 33  1  0  0  0  0
 12 13  1  0  0  0  0
 12 17  2  0  0  0  0
 13 14  2  0  0  0  0
 13 34  1  0  0  0  0
 14 15  1  0  0  0  0
 14 35  1  0  0  0  0
 15 16  2  0  0  0  0
 15 36  1  0  0  0  0
 16 17  1  0  0  0  0
 16 37  1  0  0  0  0
 17 38  1  0  0  0  0
 18 19  1  0  0  0  0
 18 39  1  0  0  0  0
 19 40  1  0  0  0  0
 20 21  2  0  0  0  0
 20 41  1  0  0  0  0
 21 22  1  0  0  0  0
 22 23  2  0  0  0  0
 22 27  1  0  0  0  0
 23 24  1  0  0  0  0
 23 25  1  0  0  0  0
 25 26  2  0  0  0  0
 25 42  1  0  0  0  0
 26 27  1  0  0  0  0
M  END
$$$$
