CHEMBL3656093
 OpenBabel04072215373D

 62 65  0  0  0  0  0  0  0  0999 V2000
    2.6159   -3.4175   -2.4247 C   0  0  0  0  0  0  0  0  0  0  0  0
    2.8306   -2.7024   -1.2075 O   0  0  0  0  0  0  0  0  0  0  0  0
    3.8365   -3.2073   -0.4410 C   0  0  0  0  0  0  0  0  0  0  0  0
    4.5245   -4.1820   -0.7251 O   0  0  0  0  0  0  0  0  0  0  0  0
    3.9861   -2.3943    0.8320 C   0  0  0  0  0  0  0  0  0  0  0  0
    5.0626   -2.9333    1.6401 N   0  0  0  0  0  0  0  0  0  0  0  0
    5.4286   -2.3420    2.8203 C   0  0  0  0  0  0  0  0  0  0  0  0
    4.8840   -1.3240    3.2380 O   0  0  0  0  0  0  0  0  0  0  0  0
    6.5015   -3.0063    3.5546 C   0  0  0  0  0  0  0  0  0  0  0  0
    7.2421   -4.1281    3.2072 C   0  0  0  0  0  0  0  0  0  0  0  0
    8.1282   -4.3961    4.2221 N   0  0  0  0  0  0  0  0  0  0  0  0
    7.9869   -3.4799    5.2362 C   0  0  0  0  0  0  0  0  0  0  0  0
    8.7425   -3.5600    6.4819 C   0  0  0  0  0  0  0  0  0  0  0  0
    8.5571   -2.6287    7.4922 C   0  0  0  0  0  0  0  0  0  0  0  0
    9.1254   -2.8723    8.7391 C   0  0  0  0  0  0  0  0  0  0  0  0
    8.8920   -2.0762    9.8441 O   0  0  0  0  0  0  0  0  0  0  0  0
    7.6317   -1.5334   10.0166 C   0  0  0  0  0  0  0  0  0  0  0  0
    6.4569   -2.1626    9.5971 C   0  0  0  0  0  0  0  0  0  0  0  0
    5.2238   -1.5220    9.7264 C   0  0  0  0  0  0  0  0  0  0  0  0
    5.1231   -0.2826   10.3609 C   0  0  0  0  0  0  0  0  0  0  0  0
    3.8789    0.3801   10.5213 N   0  0  0  0  0  0  0  0  0  0  0  0
    2.6521   -0.2633   10.4967 C   0  0  0  0  0  0  0  0  0  0  0  0
    2.5135   -1.4846   10.5185 O   0  0  0  0  0  0  0  0  0  0  0  0
    1.5946    0.6250   10.3979 N   0  0  0  0  0  0  0  0  0  0  0  0
    0.2591    0.1556   10.3291 C   0  0  0  0  0  0  0  0  0  0  0  0
   -0.5912    0.6854    9.3576 C   0  0  0  0  0  0  0  0  0  0  0  0
   -1.8916    0.1926    9.2244 C   0  0  0  0  0  0  0  0  0  0  0  0
   -2.3668   -0.7882   10.0965 C   0  0  0  0  0  0  0  0  0  0  0  0
   -1.5419   -1.2961   11.1047 C   0  0  0  0  0  0  0  0  0  0  0  0
   -2.0576   -2.3118   12.0818 C   0  0  0  0  0  0  0  0  0  0  0  0
   -0.2220   -0.8292   11.2026 C   0  0  0  0  0  0  0  0  0  0  0  0
    6.3006    0.3157   10.8249 C   0  0  0  0  0  0  0  0  0  0  0  0
    6.2404    1.5046   11.4466 F   0  0  0  0  0  0  0  0  0  0  0  0
    7.5472   -0.3007   10.6655 C   0  0  0  0  0  0  0  0  0  0  0  0
    9.9779   -3.9574    8.8941 C   0  0  0  0  0  0  0  0  0  0  0  0
   10.1599   -4.8004    7.8074 C   0  0  0  0  0  0  0  0  0  0  0  0
    9.5442   -4.6425    6.6114 N   0  0  0  0  0  0  0  0  0  0  0  0
    6.9922   -2.6062    4.8312 C   0  0  0  0  0  0  0  0  0  0  0  0
    1.7766   -2.9513   -2.9478 H   0  0  0  0  0  0  0  0  0  0  0  0
    2.3581   -4.4609   -2.2170 H   0  0  0  0  0  0  0  0  0  0  0  0
    3.5017   -3.3562   -3.0646 H   0  0  0  0  0  0  0  0  0  0  0  0
    3.0605   -2.4456    1.4135 H   0  0  0  0  0  0  0  0  0  0  0  0
    4.2226   -1.3552    0.5848 H   0  0  0  0  0  0  0  0  0  0  0  0
    5.5068   -3.7900    1.3329 H   0  0  0  0  0  0  0  0  0  0  0  0
    7.2185   -4.7697    2.3299 H   0  0  0  0  0  0  0  0  0  0  0  0
    8.7796   -5.1730    4.2649 H   0  0  0  0  0  0  0  0  0  0  0  0
    7.9246   -1.7651    7.3302 H   0  0  0  0  0  0  0  0  0  0  0  0
    6.4718   -3.1453    9.1324 H   0  0  0  0  0  0  0  0  0  0  0  0
    4.3544   -2.0171    9.3028 H   0  0  0  0  0  0  0  0  0  0  0  0
    3.9049    1.2955   10.9538 H   0  0  0  0  0  0  0  0  0  0  0  0
    1.8060    1.4513    9.8566 H   0  0  0  0  0  0  0  0  0  0  0  0
   -0.2388    1.4345    8.6554 H   0  0  0  0  0  0  0  0  0  0  0  0
   -2.5350    0.5654    8.4319 H   0  0  0  0  0  0  0  0  0  0  0  0
   -3.3846   -1.1544    9.9825 H   0  0  0  0  0  0  0  0  0  0  0  0
   -3.0852   -2.6095   11.8458 H   0  0  0  0  0  0  0  0  0  0  0  0
   -2.0579   -1.8909   13.0928 H   0  0  0  0  0  0  0  0  0  0  0  0
   -1.4369   -3.2131   12.0662 H   0  0  0  0  0  0  0  0  0  0  0  0
    0.4294   -1.2361   11.9740 H   0  0  0  0  0  0  0  0  0  0  0  0
    8.4403    0.1876   11.0423 H   0  0  0  0  0  0  0  0  0  0  0  0
   10.4740   -4.1535    9.8375 H   0  0  0  0  0  0  0  0  0  0  0  0
   10.8132   -5.6663    7.8794 H   0  0  0  0  0  0  0  0  0  0  0  0
    6.6101   -1.7659    5.3995 H   0  0  0  0  0  0  0  0  0  0  0  0
  1  2  1  0  0  0  0
  1 39  1  0  0  0  0
  1 40  1  0  0  0  0
  1 41  1  0  0  0  0
  2  3  1  0  0  0  0
  3  4  2  0  0  0  0
  3  5  1  0  0  0  0
  5  6  1  0  0  0  0
  5 42  1  0  0  0  0
  5 43  1  0  0  0  0
  6  7  1  0  0  0  0
  6 44  1  0  0  0  0
  7  8  2  0  0  0  0
  7  9  1  0  0  0  0
  9 10  2  0  0  0  0
  9 38  1  0  0  0  0
 10 11  1  0  0  0  0
 10 45  1  0  0  0  0
 11 12  1  0  0  0  0
 11 46  1  0  0  0  0
 12 13  1  0  0  0  0
 12 38  2  0  0  0  0
 13 14  1  0  0  0  0
 13 37  2  0  0  0  0
 14 15  2  0  0  0  0
 14 47  1  0  0  0  0
 15 16  1  0  0  0  0
 15 35  1  0  0  0  0
 16 17  1  0  0  0  0
 17 18  1  0  0  0  0
 17 34  2  0  0  0  0
 18 19  2  0  0  0  0
 18 48  1  0  0  0  0
 19 20  1  0  0  0  0
 19 49  1  0  0  0  0
 20 21  1  0  0  0  0
 20 32  2  0  0  0  0
 21 22  1  0  0  0  0
 21 50  1  0  0  0  0
 22 23  2  0  0  0  0
 22 24  1  0  0  0  0
 24 25  1  0  0  0  0
 24 51  1  0  0  0  0
 25 26  1  0  0  0  0
 25 31  2  0  0  0  0
 26 27  2  0  0  0  0
 26 52  1  0  0  0  0
 27 28  1  0  0  0  0
 27 53  1  0  0  0  0
 28 29  2  0  0  0  0
 28 54  1  0  0  0  0
 29 30  1  0  0  0  0
 29 31  1  0  0  0  0
 30 55  1  0  0  0  0
 30 56  1  0  0  0  0
 30 57  1  0  0  0  0
 31 58  1  0  0  0  0
 32 33  1  0  0  0  0
 32 34  1  0  0  0  0
 34 59  1  0  0  0  0
 35 36  2  0  0  0  0
 35 60  1  0  0  0  0
 36 37  1  0  0  0  0
 36 61  1  0  0  0  0
 38 62  1  0  0  0  0
M  END
$$$$
