CHEMBL271864
 OpenBabel04072215363D

 68 73  0  0  0  0  0  0  0  0999 V2000
    1.1019    0.3957    0.6273 C   0  0  0  0  0  0  0  0  0  0  0  0
    2.4206   -0.0450   -0.0143 C   0  0  0  0  0  0  0  0  0  0  0  0
    3.3712    1.1310   -0.1834 C   0  0  0  0  0  0  0  0  0  0  0  0
    2.9505   -1.3013    0.6597 C   0  0  0  0  0  0  0  0  0  0  0  0
    2.5851   -2.6282    0.2123 C   0  0  0  0  0  0  0  0  0  0  0  0
    1.7766   -3.0630   -0.9704 C   0  0  0  0  0  0  0  0  0  0  0  0
    1.2008   -2.2582   -1.8415 N   0  0  0  0  0  0  0  0  0  0  0  0
    0.6092   -3.0568   -2.7962 N   0  0  0  0  0  0  0  0  0  0  0  0
    0.8633   -4.3025   -2.4574 C   0  0  0  0  0  0  0  0  0  0  0  0
    0.4817   -5.4617   -3.0411 N   0  0  0  0  0  0  0  0  0  0  0  0
   -0.2027   -5.3994   -4.3273 C   0  0  0  0  0  0  0  0  0  0  0  0
   -1.2061   -6.5507   -4.4131 C   0  0  0  0  0  0  0  0  0  0  0  0
   -0.5819   -7.9185   -4.0981 C   0  0  0  0  0  0  0  0  0  0  0  0
    0.2330   -8.4202   -5.2091 N   0  0  0  0  0  0  0  0  0  0  0  0
    0.2373   -7.8636   -2.8021 C   0  0  0  0  0  0  0  0  0  0  0  0
    1.2172   -6.6940   -2.7773 C   0  0  0  0  0  0  0  0  0  0  0  0
    1.5865   -4.3818   -1.3013 O   0  0  0  0  0  0  0  0  0  0  0  0
    3.1274   -3.5385    1.0846 C   0  0  0  0  0  0  0  0  0  0  0  0
    3.8711   -2.8577    1.9941 N   0  0  0  0  0  0  0  0  0  0  0  0
    4.5808   -3.4567    2.9591 N   0  0  0  0  0  0  0  0  0  0  0  0
    5.2631   -2.6410    3.6904 C   0  0  0  0  0  0  0  0  0  0  0  0
    5.3030   -1.2838    3.5662 N   0  0  0  0  0  0  0  0  0  0  0  0
    4.5960   -0.6827    2.6503 C   0  0  0  0  0  0  0  0  0  0  0  0
    4.6327    0.6910    2.5878 N   0  0  0  0  0  0  0  0  0  0  0  0
    5.7099    1.5151    2.9956 C   0  0  0  0  0  0  0  0  0  0  0  0
    7.0541    1.1132    2.9138 C   0  0  0  0  0  0  0  0  0  0  0  0
    8.1040    1.9811    3.2794 C   0  0  0  0  0  0  0  0  0  0  0  0
    9.5105    1.4931    3.1628 C   0  0  0  0  0  0  0  0  0  0  0  0
    9.7224    0.3623    2.7278 O   0  0  0  0  0  0  0  0  0  0  0  0
   10.5242    2.3463    3.5614 N   0  0  0  0  0  0  0  0  0  0  0  0
   11.9038    1.9685    3.5401 C   0  0  0  0  0  0  0  0  0  0  0  0
   12.9715    2.9557    3.9303 C   0  0  0  0  0  0  0  0  0  0  0  0
   12.8425    2.5176    2.5018 C   0  0  0  0  0  0  0  0  0  0  0  0
    7.7834    3.2648    3.7284 C   0  0  0  0  0  0  0  0  0  0  0  0
    8.7408    4.1303    4.0937 F   0  0  0  0  0  0  0  0  0  0  0  0
    6.4621    3.6916    3.8026 C   0  0  0  0  0  0  0  0  0  0  0  0
    5.4440    2.8192    3.4258 C   0  0  0  0  0  0  0  0  0  0  0  0
    4.1730    3.2436    3.4888 F   0  0  0  0  0  0  0  0  0  0  0  0
    3.7957   -1.5050    1.7651 C   0  0  0  0  0  0  0  0  0  0  0  0
    0.6992    1.2839    0.1290 H   0  0  0  0  0  0  0  0  0  0  0  0
    1.2303    0.6246    1.6902 H   0  0  0  0  0  0  0  0  0  0  0  0
    0.3471   -0.3958    0.5470 H   0  0  0  0  0  0  0  0  0  0  0  0
    2.1855   -0.3120   -1.0494 H   0  0  0  0  0  0  0  0  0  0  0  0
    3.4959    1.7073    0.7311 H   0  0  0  0  0  0  0  0  0  0  0  0
    2.9538    1.8371   -0.9128 H   0  0  0  0  0  0  0  0  0  0  0  0
    4.3499    0.8127   -0.5540 H   0  0  0  0  0  0  0  0  0  0  0  0
    0.5270   -5.4602   -5.1446 H   0  0  0  0  0  0  0  0  0  0  0  0
   -0.7509   -4.4578   -4.4558 H   0  0  0  0  0  0  0  0  0  0  0  0
   -1.6807   -6.5592   -5.4018 H   0  0  0  0  0  0  0  0  0  0  0  0
   -2.0089   -6.3648   -3.6868 H   0  0  0  0  0  0  0  0  0  0  0  0
   -1.3937   -8.6414   -3.9534 H   0  0  0  0  0  0  0  0  0  0  0  0
    0.9813   -7.7692   -5.4397 H   0  0  0  0  0  0  0  0  0  0  0  0
   -0.3429   -8.4998   -6.0475 H   0  0  0  0  0  0  0  0  0  0  0  0
    0.7766   -8.8051   -2.6425 H   0  0  0  0  0  0  0  0  0  0  0  0
   -0.4560   -7.7554   -1.9571 H   0  0  0  0  0  0  0  0  0  0  0  0
    2.0026   -6.8264   -3.5320 H   0  0  0  0  0  0  0  0  0  0  0  0
    1.7151   -6.6869   -1.8009 H   0  0  0  0  0  0  0  0  0  0  0  0
    3.0699   -4.6177    1.1249 H   0  0  0  0  0  0  0  0  0  0  0  0
    5.8743   -3.0647    4.5054 H   0  0  0  0  0  0  0  0  0  0  0  0
    3.7275    1.1320    2.7108 H   0  0  0  0  0  0  0  0  0  0  0  0
    7.3004    0.1166    2.5463 H   0  0  0  0  0  0  0  0  0  0  0  0
   10.2875    3.2606    3.9327 H   0  0  0  0  0  0  0  0  0  0  0  0
   12.0676    0.9356    3.8447 H   0  0  0  0  0  0  0  0  0  0  0  0
   13.8161    2.5854    4.5006 H   0  0  0  0  0  0  0  0  0  0  0  0
   12.6868    3.9726    4.1714 H   0  0  0  0  0  0  0  0  0  0  0  0
   13.5980    1.8490    2.1039 H   0  0  0  0  0  0  0  0  0  0  0  0
   12.4596    3.2295    1.7806 H   0  0  0  0  0  0  0  0  0  0  0  0
    6.2251    4.6923    4.1448 H   0  0  0  0  0  0  0  0  0  0  0  0
  1  2  1  0  0  0  0
  1 40  1  0  0  0  0
  1 41  1  0  0  0  0
  1 42  1  0  0  0  0
  2  3  1  0  0  0  0
  2  4  1  0  0  0  0
  2 43  1  0  0  0  0
  3 44  1  0  0  0  0
  3 45  1  0  0  0  0
  3 46  1  0  0  0  0
  4  5  1  0  0  0  0
  4 39  2  0  0  0  0
  5  6  1  0  0  0  0
  5 18  2  0  0  0  0
  6  7  2  0  0  0  0
  6 17  1  0  0  0  0
  7  8  1  0  0  0  0
  8  9  2  0  0  0  0
  9 10  1  0  0  0  0
  9 17  1  0  0  0  0
 10 11  1  0  0  0  0
 10 16  1  0  0  0  0
 11 12  1  0  0  0  0
 11 47  1  0  0  0  0
 11 48  1  0  0  0  0
 12 13  1  0  0  0  0
 12 49  1  0  0  0  0
 12 50  1  0  0  0  0
 13 14  1  0  0  0  0
 13 15  1  0  0  0  0
 13 51  1  0  0  0  0
 14 52  1  0  0  0  0
 14 53  1  0  0  0  0
 15 16  1  0  0  0  0
 15 54  1  0  0  0  0
 15 55  1  0  0  0  0
 16 56  1  0  0  0  0
 16 57  1  0  0  0  0
 18 19  1  0  0  0  0
 18 58  1  0  0  0  0
 19 20  1  0  0  0  0
 19 39  1  0  0  0  0
 20 21  2  0  0  0  0
 21 22  1  0  0  0  0
 21 59  1  0  0  0  0
 22 23  2  0  0  0  0
 23 24  1  0  0  0  0
 23 39  1  0  0  0  0
 24 25  1  0  0  0  0
 24 60  1  0  0  0  0
 25 26  1  0  0  0  0
 25 37  2  0  0  0  0
 26 27  2  0  0  0  0
 26 61  1  0  0  0  0
 27 28  1  0  0  0  0
 27 34  1  0  0  0  0
 28 29  2  0  0  0  0
 28 30  1  0  0  0  0
 30 31  1  0  0  0  0
 30 62  1  0  0  0  0
 31 32  1  0  0  0  0
 31 33  1  0  0  0  0
 31 63  1  0  0  0  0
 32 33  1  0  0  0  0
 32 64  1  0  0  0  0
 32 65  1  0  0  0  0
 33 66  1  0  0  0  0
 33 67  1  0  0  0  0
 34 35  1  0  0  0  0
 34 36  2  0  0  0  0
 36 37  1  0  0  0  0
 36 68  1  0  0  0  0
 37 38  1  0  0  0  0
M  END
$$$$
