CHEMBL3932115
 OpenBabel04072215373D

 49 53  0  0  1  0  0  0  0  0999 V2000
   -3.0955    5.4315   -0.2472 C   0  0  0  0  0  0  0  0  0  0  0  0
   -2.0365    4.4798   -0.1246 O   0  0  0  0  0  0  0  0  0  0  0  0
   -0.7694    4.9929    0.0104 C   0  0  0  0  0  0  0  0  0  0  0  0
   -0.5088    6.3606    0.1106 C   0  0  0  0  0  0  0  0  0  0  0  0
    0.8080    6.8492    0.2373 C   0  0  0  0  0  0  0  0  0  0  0  0
    1.1349    8.2025    0.3821 C   0  0  0  0  0  0  0  0  0  0  0  0
    0.0949    9.1763    0.4653 N   0  0  0  0  0  0  0  0  0  0  0  0
    0.3194   10.5606    0.2939 C   0  0  0  0  0  0  0  0  0  0  0  0
    1.0674   11.0200   -0.7976 C   0  0  0  0  0  0  0  0  0  0  0  0
    1.4117   12.3642   -0.9188 C   0  0  0  0  0  0  0  0  0  0  0  0
    0.9926   13.2755    0.0496 C   0  0  0  0  0  0  0  0  0  0  0  0
    1.5948   15.0682   -0.1257 Br  0  0  0  0  0  0  0  0  0  0  0  0
    0.1846   12.8441    1.1076 C   0  0  0  0  0  0  0  0  0  0  0  0
   -0.3941   13.9187    2.3327 Cl  0  0  0  0  0  0  0  0  0  0  0  0
   -0.1624   11.4906    1.2200 C   0  0  0  0  0  0  0  0  0  0  0  0
    2.4157    8.6179    0.4589 N   0  0  0  0  0  0  0  0  0  0  0  0
    3.3562    7.6765    0.4061 C   0  0  0  0  0  0  0  0  0  0  0  0
    3.1524    6.3608    0.2858 N   0  0  0  0  0  0  0  0  0  0  0  0
    1.8784    5.9541    0.2047 C   0  0  0  0  0  0  0  0  0  0  0  0
    1.6137    4.6011    0.0962 C   0  0  0  0  0  0  0  0  0  0  0  0
    0.3078    4.0890    0.0329 C   0  0  0  0  0  0  0  0  0  0  0  0
    0.0197    2.7440    0.0623 O   0  0  0  0  0  0  0  0  0  0  0  0
    0.9897    1.8322   -0.4921 C   0  0  1  0  0  0  0  0  0  0  0  0
    2.0290    1.3792    0.5344 C   0  0  0  0  0  0  0  0  0  0  0  0
    1.5169    0.2190    1.2043 O   0  0  0  0  0  0  0  0  0  0  0  0
    0.6652   -0.4552    0.2799 C   0  0  2  0  0  0  0  0  0  0  0  0
    1.4216   -1.5610   -0.4301 C   0  0  0  0  0  0  0  0  0  0  0  0
    0.9186   -1.4462   -1.8458 C   0  0  0  0  0  0  0  0  0  0  0  0
    0.7564   -0.0399   -2.0646 O   0  0  0  0  0  0  0  0  0  0  0  0
    0.2795    0.5240   -0.8264 C   0  0  2  0  0  0  0  0  0  0  0  0
   -4.0222    4.8938   -0.4675 H   0  0  0  0  0  0  0  0  0  0  0  0
   -2.9205    6.1273   -1.0758 H   0  0  0  0  0  0  0  0  0  0  0  0
   -3.2368    5.9735    0.6943 H   0  0  0  0  0  0  0  0  0  0  0  0
   -1.3139    7.0860    0.0823 H   0  0  0  0  0  0  0  0  0  0  0  0
   -0.4842    8.9680    1.2708 H   0  0  0  0  0  0  0  0  0  0  0  0
    1.4221   10.3125   -1.5450 H   0  0  0  0  0  0  0  0  0  0  0  0
    2.0298   12.6761   -1.7556 H   0  0  0  0  0  0  0  0  0  0  0  0
   -0.7700   11.1644    2.0602 H   0  0  0  0  0  0  0  0  0  0  0  0
    4.3854    8.0132    0.4715 H   0  0  0  0  0  0  0  0  0  0  0  0
    2.4776    3.9403    0.0913 H   0  0  0  0  0  0  0  0  0  0  0  0
    1.4524    2.2761   -1.3821 H   0  0  0  0  0  0  0  0  0  0  0  0
    2.2681    2.1213    1.2983 H   0  0  0  0  0  0  0  0  0  0  0  0
    2.9565    1.0828    0.0290 H   0  0  0  0  0  0  0  0  0  0  0  0
   -0.2059   -0.8396    0.8186 H   0  0  0  0  0  0  0  0  0  0  0  0
    1.2424   -2.5499    0.0014 H   0  0  0  0  0  0  0  0  0  0  0  0
    2.5035   -1.3821   -0.3956 H   0  0  0  0  0  0  0  0  0  0  0  0
   -0.0539   -1.9362   -1.9693 H   0  0  0  0  0  0  0  0  0  0  0  0
    1.6179   -1.8565   -2.5792 H   0  0  0  0  0  0  0  0  0  0  0  0
   -0.8087    0.6315   -0.9019 H   0  0  0  0  0  0  0  0  0  0  0  0
  1  2  1  0  0  0  0
  1 31  1  0  0  0  0
  1 32  1  0  0  0  0
  1 33  1  0  0  0  0
  2  3  1  0  0  0  0
  3  4  1  0  0  0  0
  3 21  2  0  0  0  0
  4  5  2  0  0  0  0
  4 34  1  0  0  0  0
  5  6  1  0  0  0  0
  5 19  1  0  0  0  0
  6  7  1  0  0  0  0
  6 16  2  0  0  0  0
  7  8  1  0  0  0  0
  7 35  1  0  0  0  0
  8  9  1  0  0  0  0
  8 15  2  0  0  0  0
  9 10  2  0  0  0  0
  9 36  1  0  0  0  0
 10 11  1  0  0  0  0
 10 37  1  0  0  0  0
 11 12  1  0  0  0  0
 11 13  2  0  0  0  0
 13 14  1  0  0  0  0
 13 15  1  0  0  0  0
 15 38  1  0  0  0  0
 16 17  1  0  0  0  0
 17 18  2  0  0  0  0
 17 39  1  0  0  0  0
 18 19  1  0  0  0  0
 19 20  2  0  0  0  0
 20 21  1  0  0  0  0
 20 40  1  0  0  0  0
 21 22  1  0  0  0  0
 23 24  1  0  0  0  0
 23 30  1  0  0  0  0
 23 22  1  0  0  0  0
 23 41  1  6  0  0  0
 24 25  1  0  0  0  0
 24 42  1  0  0  0  0
 24 43  1  0  0  0  0
 25 26  1  0  0  0  0
 26 27  1  0  0  0  0
 26 30  1  0  0  0  0
 26 44  1  1  0  0  0
 27 28  1  0  0  0  0
 27 45  1  0  0  0  0
 27 46  1  0  0  0  0
 28 29  1  0  0  0  0
 28 47  1  0  0  0  0
 28 48  1  0  0  0  0
 29 30  1  0  0  0  0
 30 49  1  6  0  0  0
M  END
$$$$
