CHEMBL4238195
 OpenBabel04072215383D

 54 58  0  0  0  0  0  0  0  0999 V2000
    2.3993   -0.4344    1.5472 C   0  0  0  0  0  0  0  0  0  0  0  0
    0.9054   -0.3140    1.5199 C   0  0  0  0  0  0  0  0  0  0  0  0
    0.2927    0.8665    1.9472 C   0  0  0  0  0  0  0  0  0  0  0  0
   -1.0900    0.9851    1.9393 C   0  0  0  0  0  0  0  0  0  0  0  0
   -1.8723   -0.0793    1.4975 C   0  0  0  0  0  0  0  0  0  0  0  0
   -1.2925   -1.2692    1.0452 C   0  0  0  0  0  0  0  0  0  0  0  0
   -2.0504   -2.3777    0.5853 N   0  0  0  0  0  0  0  0  0  0  0  0
   -3.4201   -2.3881    0.3916 C   0  0  0  0  0  0  0  0  0  0  0  0
   -4.1529   -1.4134    0.5165 O   0  0  0  0  0  0  0  0  0  0  0  0
   -3.8996   -3.6575    0.0748 N   0  0  0  0  0  0  0  0  0  0  0  0
   -5.2875   -3.8405   -0.1450 C   0  0  0  0  0  0  0  0  0  0  0  0
   -6.0244   -2.9234   -0.8934 C   0  0  0  0  0  0  0  0  0  0  0  0
   -7.4187   -2.9872   -0.9178 C   0  0  0  0  0  0  0  0  0  0  0  0
   -8.1209   -3.9890   -0.2260 C   0  0  0  0  0  0  0  0  0  0  0  0
   -9.5884   -3.9669   -0.1931 C   0  0  0  0  0  0  0  0  0  0  0  0
  -10.3723   -3.5866   -1.3092 C   0  0  0  0  0  0  0  0  0  0  0  0
  -11.7957   -3.5349   -1.3160 C   0  0  0  0  0  0  0  0  0  0  0  0
  -12.5302   -3.1478   -2.5474 C   0  0  0  0  0  0  0  0  0  0  0  0
  -12.0384   -3.4607   -3.8301 C   0  0  0  0  0  0  0  0  0  0  0  0
  -12.7212   -3.0822   -4.9895 C   0  0  0  0  0  0  0  0  0  0  0  0
  -13.9228   -2.3897   -4.8937 C   0  0  0  0  0  0  0  0  0  0  0  0
  -14.4423   -2.0792   -3.6402 C   0  0  0  0  0  0  0  0  0  0  0  0
  -13.7540   -2.4557   -2.4812 C   0  0  0  0  0  0  0  0  0  0  0  0
  -12.5840   -3.8247   -0.2444 N   0  0  0  0  0  0  0  0  0  0  0  0
  -11.8835   -4.1885    0.8601 C   0  0  0  0  0  0  0  0  0  0  0  0
  -12.4102   -4.5233    2.0400 N   0  0  0  0  0  0  0  0  0  0  0  0
  -11.3307   -4.7930    2.8596 O   0  0  0  0  0  0  0  0  0  0  0  0
  -10.1600   -4.5988    2.1853 C   0  0  0  0  0  0  0  0  0  0  0  0
   -9.0434   -4.7699    2.9206 N   0  0  0  0  0  0  0  0  0  0  0  0
  -10.4460   -4.2495    0.8843 C   0  0  0  0  0  0  0  0  0  0  0  0
   -7.3501   -4.9873    0.3926 C   0  0  0  0  0  0  0  0  0  0  0  0
   -5.9483   -4.9104    0.4509 C   0  0  0  0  0  0  0  0  0  0  0  0
    0.1060   -1.3790    1.0679 C   0  0  0  0  0  0  0  0  0  0  0  0
    2.8651    0.4733    1.9492 H   0  0  0  0  0  0  0  0  0  0  0  0
    2.7852   -0.5866    0.5349 H   0  0  0  0  0  0  0  0  0  0  0  0
    2.6998   -1.2709    2.1851 H   0  0  0  0  0  0  0  0  0  0  0  0
    0.8908    1.7065    2.3006 H   0  0  0  0  0  0  0  0  0  0  0  0
   -1.5643    1.9019    2.2801 H   0  0  0  0  0  0  0  0  0  0  0  0
   -2.9440    0.0683    1.5227 H   0  0  0  0  0  0  0  0  0  0  0  0
   -1.5360   -3.1747    0.2436 H   0  0  0  0  0  0  0  0  0  0  0  0
   -3.4108   -4.4160    0.5271 H   0  0  0  0  0  0  0  0  0  0  0  0
   -5.5283   -2.1130   -1.4238 H   0  0  0  0  0  0  0  0  0  0  0  0
   -7.9445   -2.2028   -1.4592 H   0  0  0  0  0  0  0  0  0  0  0  0
   -9.8510   -3.3059   -2.2235 H   0  0  0  0  0  0  0  0  0  0  0  0
  -11.1161   -4.0248   -3.9488 H   0  0  0  0  0  0  0  0  0  0  0  0
  -12.3141   -3.3372   -5.9645 H   0  0  0  0  0  0  0  0  0  0  0  0
  -14.4572   -2.0996   -5.7944 H   0  0  0  0  0  0  0  0  0  0  0  0
  -15.3860   -1.5458   -3.5601 H   0  0  0  0  0  0  0  0  0  0  0  0
  -14.1831   -2.2003   -1.5128 H   0  0  0  0  0  0  0  0  0  0  0  0
   -9.1618   -4.8695    3.9255 H   0  0  0  0  0  0  0  0  0  0  0  0
   -8.2132   -4.2345    2.6790 H   0  0  0  0  0  0  0  0  0  0  0  0
   -7.8372   -5.8270    0.8857 H   0  0  0  0  0  0  0  0  0  0  0  0
   -5.4067   -5.6506    1.0324 H   0  0  0  0  0  0  0  0  0  0  0  0
    0.5891   -2.2931    0.7322 H   0  0  0  0  0  0  0  0  0  0  0  0
  1  2  1  0  0  0  0
  1 34  1  0  0  0  0
  1 35  1  0  0  0  0
  1 36  1  0  0  0  0
  2  3  1  0  0  0  0
  2 33  2  0  0  0  0
  3  4  2  0  0  0  0
  3 37  1  0  0  0  0
  4  5  1  0  0  0  0
  4 38  1  0  0  0  0
  5  6  2  0  0  0  0
  5 39  1  0  0  0  0
  6  7  1  0  0  0  0
  6 33  1  0  0  0  0
  7  8  1  0  0  0  0
  7 40  1  0  0  0  0
  8  9  2  0  0  0  0
  8 10  1  0  0  0  0
 10 11  1  0  0  0  0
 10 41  1  0  0  0  0
 11 12  1  0  0  0  0
 11 32  2  0  0  0  0
 12 13  2  0  0  0  0
 12 42  1  0  0  0  0
 13 14  1  0  0  0  0
 13 43  1  0  0  0  0
 14 15  1  0  0  0  0
 14 31  2  0  0  0  0
 15 16  2  0  0  0  0
 15 30  1  0  0  0  0
 16 17  1  0  0  0  0
 16 44  1  0  0  0  0
 17 18  1  0  0  0  0
 17 24  2  0  0  0  0
 18 19  1  0  0  0  0
 18 23  2  0  0  0  0
 19 20  2  0  0  0  0
 19 45  1  0  0  0  0
 20 21  1  0  0  0  0
 20 46  1  0  0  0  0
 21 22  2  0  0  0  0
 21 47  1  0  0  0  0
 22 23  1  0  0  0  0
 22 48  1  0  0  0  0
 23 49  1  0  0  0  0
 24 25  1  0  0  0  0
 25 26  2  0  0  0  0
 25 30  1  0  0  0  0
 26 27  1  0  0  0  0
 27 28  1  0  0  0  0
 28 29  1  0  0  0  0
 28 30  2  0  0  0  0
 29 50  1  0  0  0  0
 29 51  1  0  0  0  0
 31 32  1  0  0  0  0
 31 52  1  0  0  0  0
 32 53  1  0  0  0  0
 33 54  1  0  0  0  0
M  END
$$$$
