CHEMBL3633273
 OpenBabel04072215373D

 62 64  0  0  0  0  0  0  0  0999 V2000
    1.0501    0.6528   -0.9287 C   0  0  0  0  0  0  0  0  0  0  0  0
    2.1732    0.0841   -0.2467 O   0  0  0  0  0  0  0  0  0  0  0  0
    2.9630   -0.7536   -1.0033 C   0  0  0  0  0  0  0  0  0  0  0  0
    2.8159   -0.8890   -2.4009 C   0  0  0  0  0  0  0  0  0  0  0  0
    3.6056   -1.7794   -3.1279 C   0  0  0  0  0  0  0  0  0  0  0  0
    4.5898   -2.5046   -2.4764 C   0  0  0  0  0  0  0  0  0  0  0  0
    5.3402   -3.5520   -3.2137 C   0  0  0  0  0  0  0  0  0  0  0  0
    5.0612   -3.9124   -4.3496 O   0  0  0  0  0  0  0  0  0  0  0  0
    6.2356   -4.1392   -2.3896 O   0  0  0  0  0  0  0  0  0  0  0  0
    6.2352   -5.5721   -2.4068 C   0  0  0  0  0  0  0  0  0  0  0  0
    5.1741   -6.0625   -1.3963 C   0  0  0  0  0  0  0  0  0  0  0  0
    5.0415   -7.5245   -1.2813 N   0  0  0  0  0  0  0  0  0  0  0  0
    6.2706   -8.1386   -0.7766 C   0  0  0  0  0  0  0  0  0  0  0  0
    3.9308   -7.8508   -0.3784 C   0  0  0  0  0  0  0  0  0  0  0  0
    4.7683   -2.3395   -1.0987 C   0  0  0  0  0  0  0  0  0  0  0  0
    3.9456   -1.5118   -0.3298 C   0  0  0  0  0  0  0  0  0  0  0  0
    4.0835   -1.4634    1.0962 N   0  0  0  0  0  0  0  0  0  0  0  0
    4.8918   -2.3056    1.8524 C   0  0  0  0  0  0  0  0  0  0  0  0
    5.5850   -3.2179    1.4019 O   0  0  0  0  0  0  0  0  0  0  0  0
    4.9223   -1.9996    3.2020 N   0  0  0  0  0  0  0  0  0  0  0  0
    5.6710   -2.7984    4.1179 C   0  0  0  0  0  0  0  0  0  0  0  0
    5.5565   -4.2053    4.0711 C   0  0  0  0  0  0  0  0  0  0  0  0
    6.3859   -5.0668    4.8204 C   0  0  0  0  0  0  0  0  0  0  0  0
    6.2627   -6.5413    4.7356 C   0  0  0  0  0  0  0  0  0  0  0  0
    6.5472   -7.3850    5.8223 C   0  0  0  0  0  0  0  0  0  0  0  0
    6.4132   -8.7695    5.7106 C   0  0  0  0  0  0  0  0  0  0  0  0
    5.9849   -9.2930    4.5049 C   0  0  0  0  0  0  0  0  0  0  0  0
    5.7035   -8.5370    3.4258 N   0  0  0  0  0  0  0  0  0  0  0  0
    5.8566   -7.1943    3.5663 C   0  0  0  0  0  0  0  0  0  0  0  0
    7.3567   -4.4595    5.6275 C   0  0  0  0  0  0  0  0  0  0  0  0
    7.4583   -3.0645    5.7178 C   0  0  0  0  0  0  0  0  0  0  0  0
    6.5961   -2.2259    4.9955 C   0  0  0  0  0  0  0  0  0  0  0  0
    6.8933   -0.9040    5.1340 O   0  0  0  0  0  0  0  0  0  0  0  0
    5.8365    0.0361    5.1901 C   0  0  0  0  0  0  0  0  0  0  0  0
    4.5980   -0.5077    5.1817 F   0  0  0  0  0  0  0  0  0  0  0  0
    5.9564    0.7497    6.3329 F   0  0  0  0  0  0  0  0  0  0  0  0
    5.9416    0.8911    4.1506 F   0  0  0  0  0  0  0  0  0  0  0  0
    0.4664    1.2371   -0.2123 H   0  0  0  0  0  0  0  0  0  0  0  0
    0.3959   -0.1322   -1.3276 H   0  0  0  0  0  0  0  0  0  0  0  0
    1.3674    1.3369   -1.7253 H   0  0  0  0  0  0  0  0  0  0  0  0
    2.0756   -0.3318   -2.9641 H   0  0  0  0  0  0  0  0  0  0  0  0
    3.4355   -1.9160   -4.1952 H   0  0  0  0  0  0  0  0  0  0  0  0
    7.2391   -5.8831   -2.1060 H   0  0  0  0  0  0  0  0  0  0  0  0
    6.0451   -5.9644   -3.4119 H   0  0  0  0  0  0  0  0  0  0  0  0
    4.2083   -5.6470   -1.7112 H   0  0  0  0  0  0  0  0  0  0  0  0
    5.3782   -5.6100   -0.4158 H   0  0  0  0  0  0  0  0  0  0  0  0
    7.0953   -8.0042   -1.4845 H   0  0  0  0  0  0  0  0  0  0  0  0
    6.1427   -9.2202   -0.6670 H   0  0  0  0  0  0  0  0  0  0  0  0
    6.5728   -7.7256    0.1933 H   0  0  0  0  0  0  0  0  0  0  0  0
    2.9899   -7.4323   -0.7530 H   0  0  0  0  0  0  0  0  0  0  0  0
    4.0954   -7.4711    0.6366 H   0  0  0  0  0  0  0  0  0  0  0  0
    3.7886   -8.9359   -0.3218 H   0  0  0  0  0  0  0  0  0  0  0  0
    5.5654   -2.9044   -0.6365 H   0  0  0  0  0  0  0  0  0  0  0  0
    3.4880   -0.7901    1.5604 H   0  0  0  0  0  0  0  0  0  0  0  0
    4.1145   -1.5379    3.5986 H   0  0  0  0  0  0  0  0  0  0  0  0
    4.8030   -4.6347    3.4123 H   0  0  0  0  0  0  0  0  0  0  0  0
    6.8670   -6.9753    6.7772 H   0  0  0  0  0  0  0  0  0  0  0  0
    6.6337   -9.4216    6.5485 H   0  0  0  0  0  0  0  0  0  0  0  0
    5.8554  -10.3628    4.3711 H   0  0  0  0  0  0  0  0  0  0  0  0
    5.6416   -6.6381    2.6573 H   0  0  0  0  0  0  0  0  0  0  0  0
    8.0765   -5.0603    6.1821 H   0  0  0  0  0  0  0  0  0  0  0  0
    8.2402   -2.6368    6.3359 H   0  0  0  0  0  0  0  0  0  0  0  0
  1  2  1  0  0  0  0
  1 38  1  0  0  0  0
  1 39  1  0  0  0  0
  1 40  1  0  0  0  0
  2  3  1  0  0  0  0
  3  4  1  0  0  0  0
  3 16  2  0  0  0  0
  4  5  2  0  0  0  0
  4 41  1  0  0  0  0
  5  6  1  0  0  0  0
  5 42  1  0  0  0  0
  6  7  1  0  0  0  0
  6 15  2  0  0  0  0
  7  8  2  0  0  0  0
  7  9  1  0  0  0  0
  9 10  1  0  0  0  0
 10 11  1  0  0  0  0
 10 43  1  0  0  0  0
 10 44  1  0  0  0  0
 11 12  1  0  0  0  0
 11 45  1  0  0  0  0
 11 46  1  0  0  0  0
 12 13  1  0  0  0  0
 12 14  1  0  0  0  0
 13 47  1  0  0  0  0
 13 48  1  0  0  0  0
 13 49  1  0  0  0  0
 14 50  1  0  0  0  0
 14 51  1  0  0  0  0
 14 52  1  0  0  0  0
 15 16  1  0  0  0  0
 15 53  1  0  0  0  0
 16 17  1  0  0  0  0
 17 18  1  0  0  0  0
 17 54  1  0  0  0  0
 18 19  2  0  0  0  0
 18 20  1  0  0  0  0
 20 21  1  0  0  0  0
 20 55  1  0  0  0  0
 21 22  1  0  0  0  0
 21 32  2  0  0  0  0
 22 23  2  0  0  0  0
 22 56  1  0  0  0  0
 23 24  1  0  0  0  0
 23 30  1  0  0  0  0
 24 25  1  0  0  0  0
 24 29  2  0  0  0  0
 25 26  2  0  0  0  0
 25 57  1  0  0  0  0
 26 27  1  0  0  0  0
 26 58  1  0  0  0  0
 27 28  2  0  0  0  0
 27 59  1  0  0  0  0
 28 29  1  0  0  0  0
 29 60  1  0  0  0  0
 30 31  2  0  0  0  0
 30 61  1  0  0  0  0
 31 32  1  0  0  0  0
 31 62  1  0  0  0  0
 32 33  1  0  0  0  0
 33 34  1  0  0  0  0
 34 35  1  0  0  0  0
 34 36  1  0  0  0  0
 34 37  1  0  0  0  0
M  END
$$$$
