CHEMBL231209
 OpenBabel04072215363D

 42 45  0  0  0  0  0  0  0  0999 V2000
    1.2018   -0.2130   -1.6897 N   0  0  0  0  0  0  0  0  0  0  0  0
    2.5630   -0.2281   -1.4053 C   0  0  0  0  0  0  0  0  0  0  0  0
    3.2276    0.8575   -1.8526 N   0  0  0  0  0  0  0  0  0  0  0  0
    4.5372    1.0037   -1.5942 C   0  0  0  0  0  0  0  0  0  0  0  0
    5.2830    0.1001   -0.8743 C   0  0  0  0  0  0  0  0  0  0  0  0
    4.6036   -1.0374   -0.4243 C   0  0  0  0  0  0  0  0  0  0  0  0
    5.3129   -2.3083    0.4868 S   0  0  0  0  0  0  0  0  0  0  0  0
    3.8531   -3.1639    0.5474 C   0  0  0  0  0  0  0  0  0  0  0  0
    2.8035   -2.5164   -0.0829 C   0  0  0  0  0  0  0  0  0  0  0  0
    1.4708   -3.1394   -0.0401 C   0  0  0  0  0  0  0  0  0  0  0  0
    1.0388   -3.7616    1.1381 C   0  0  0  0  0  0  0  0  0  0  0  0
   -0.2266   -4.3415    1.2240 C   0  0  0  0  0  0  0  0  0  0  0  0
   -1.1234   -4.2652    0.1589 C   0  0  0  0  0  0  0  0  0  0  0  0
   -2.4399   -4.7726    0.2561 N   0  0  0  0  0  0  0  0  0  0  0  0
   -3.1053   -4.9545    1.4589 C   0  0  0  0  0  0  0  0  0  0  0  0
   -2.7046   -4.5528    2.5457 O   0  0  0  0  0  0  0  0  0  0  0  0
   -4.2726   -5.6847    1.2947 N   0  0  0  0  0  0  0  0  0  0  0  0
   -5.1496   -5.9300    2.3766 C   0  0  0  0  0  0  0  0  0  0  0  0
   -5.4065   -4.9507    3.3498 C   0  0  0  0  0  0  0  0  0  0  0  0
   -6.2456   -5.2235    4.4293 C   0  0  0  0  0  0  0  0  0  0  0  0
   -6.8304   -6.4801    4.5488 C   0  0  0  0  0  0  0  0  0  0  0  0
   -6.5828   -7.4430    3.5767 C   0  0  0  0  0  0  0  0  0  0  0  0
   -7.1274   -8.6600    3.7064 F   0  0  0  0  0  0  0  0  0  0  0  0
   -5.7657   -7.1759    2.4804 C   0  0  0  0  0  0  0  0  0  0  0  0
   -0.6898   -3.6946   -1.0395 C   0  0  0  0  0  0  0  0  0  0  0  0
    0.6059   -3.1553   -1.1410 C   0  0  0  0  0  0  0  0  0  0  0  0
    3.2393   -1.2485   -0.6765 C   0  0  0  0  0  0  0  0  0  0  0  0
    0.9582    0.7169   -2.0156 H   0  0  0  0  0  0  0  0  0  0  0  0
    0.6350   -0.5559   -0.9250 H   0  0  0  0  0  0  0  0  0  0  0  0
    4.9893    1.9078   -1.9896 H   0  0  0  0  0  0  0  0  0  0  0  0
    6.3344    0.2613   -0.6707 H   0  0  0  0  0  0  0  0  0  0  0  0
    3.8356   -4.1134    1.0661 H   0  0  0  0  0  0  0  0  0  0  0  0
    1.6721   -3.8046    2.0215 H   0  0  0  0  0  0  0  0  0  0  0  0
   -0.4853   -4.8437    2.1531 H   0  0  0  0  0  0  0  0  0  0  0  0
   -3.0269   -4.7086   -0.5628 H   0  0  0  0  0  0  0  0  0  0  0  0
   -4.2260   -6.3899    0.5726 H   0  0  0  0  0  0  0  0  0  0  0  0
   -4.9534   -3.9653    3.2784 H   0  0  0  0  0  0  0  0  0  0  0  0
   -6.4267   -4.4580    5.1801 H   0  0  0  0  0  0  0  0  0  0  0  0
   -7.4697   -6.7162    5.3940 H   0  0  0  0  0  0  0  0  0  0  0  0
   -5.5824   -7.9663    1.7618 H   0  0  0  0  0  0  0  0  0  0  0  0
   -1.3498   -3.6322   -1.9002 H   0  0  0  0  0  0  0  0  0  0  0  0
    0.9170   -2.7292   -2.0931 H   0  0  0  0  0  0  0  0  0  0  0  0
  1  2  1  0  0  0  0
  1 28  1  0  0  0  0
  1 29  1  0  0  0  0
  2  3  1  0  0  0  0
  2 27  2  0  0  0  0
  3  4  2  0  0  0  0
  4  5  1  0  0  0  0
  4 30  1  0  0  0  0
  5  6  2  0  0  0  0
  5 31  1  0  0  0  0
  6  7  1  0  0  0  0
  6 27  1  0  0  0  0
  7  8  1  0  0  0  0
  8  9  2  0  0  0  0
  8 32  1  0  0  0  0
  9 10  1  0  0  0  0
  9 27  1  0  0  0  0
 10 11  1  0  0  0  0
 10 26  2  0  0  0  0
 11 12  2  0  0  0  0
 11 33  1  0  0  0  0
 12 13  1  0  0  0  0
 12 34  1  0  0  0  0
 13 14  1  0  0  0  0
 13 25  2  0  0  0  0
 14 15  1  0  0  0  0
 14 35  1  0  0  0  0
 15 16  2  0  0  0  0
 15 17  1  0  0  0  0
 17 18  1  0  0  0  0
 17 36  1  0  0  0  0
 18 19  1  0  0  0  0
 18 24  2  0  0  0  0
 19 20  2  0  0  0  0
 19 37  1  0  0  0  0
 20 21  1  0  0  0  0
 20 38  1  0  0  0  0
 21 22  2  0  0  0  0
 21 39  1  0  0  0  0
 22 23  1  0  0  0  0
 22 24  1  0  0  0  0
 24 40  1  0  0  0  0
 25 26  1  0  0  0  0
 25 41  1  0  0  0  0
 26 42  1  0  0  0  0
M  END
$$$$
