CHEMBL3128239
 OpenBabel04072215363D

 64 68  0  0  0  0  0  0  0  0999 V2000
   -2.8032   -6.2022   -3.2188 C   0  0  0  0  0  0  0  0  0  0  0  0
   -3.0594   -4.8274   -3.5013 O   0  0  0  0  0  0  0  0  0  0  0  0
   -2.1517   -4.2051   -4.3156 C   0  0  0  0  0  0  0  0  0  0  0  0
   -1.0431   -4.8176   -4.8866 C   0  0  0  0  0  0  0  0  0  0  0  0
   -0.1705   -4.0852   -5.6945 C   0  0  0  0  0  0  0  0  0  0  0  0
   -0.3777   -2.7338   -5.9632 C   0  0  0  0  0  0  0  0  0  0  0  0
    0.5056   -1.9637   -6.7553 N   0  0  0  0  0  0  0  0  0  0  0  0
    1.6072   -2.4548   -7.4395 C   0  0  0  0  0  0  0  0  0  0  0  0
    1.9120   -3.6407   -7.5331 O   0  0  0  0  0  0  0  0  0  0  0  0
    2.3869   -1.4394   -7.9753 N   0  0  0  0  0  0  0  0  0  0  0  0
    3.5686   -1.7523   -8.6934 C   0  0  0  0  0  0  0  0  0  0  0  0
    4.7416   -1.0629   -8.3852 C   0  0  0  0  0  0  0  0  0  0  0  0
    5.9355   -1.4015   -9.0249 C   0  0  0  0  0  0  0  0  0  0  0  0
    5.9581   -2.4048   -9.9944 C   0  0  0  0  0  0  0  0  0  0  0  0
    4.7867   -3.0994  -10.3291 C   0  0  0  0  0  0  0  0  0  0  0  0
    4.8067   -4.2016  -11.3690 C   0  0  0  0  0  0  0  0  0  0  0  0
    4.5917   -3.6284  -12.6878 N   0  0  0  0  0  0  0  0  0  0  0  0
    4.5663   -4.5304  -13.7507 C   0  0  0  0  0  0  0  0  0  0  0  0
    4.2097   -5.8228  -13.5448 N   0  0  0  0  0  0  0  0  0  0  0  0
    4.1620   -6.6662  -14.5955 C   0  0  0  0  0  0  0  0  0  0  0  0
    4.4494   -6.4059  -15.8804 N   0  0  0  0  0  0  0  0  0  0  0  0
    4.7945   -5.1194  -16.0583 C   0  0  0  0  0  0  0  0  0  0  0  0
    4.8718   -4.1522  -15.0689 C   0  0  0  0  0  0  0  0  0  0  0  0
    5.2702   -2.9879  -15.7542 C   0  0  0  0  0  0  0  0  0  0  0  0
    5.4438   -3.1843  -17.0652 N   0  0  0  0  0  0  0  0  0  0  0  0
    5.1298   -4.4950  -17.2364 N   0  0  0  0  0  0  0  0  0  0  0  0
    5.2494   -5.0674  -18.5693 C   0  0  0  0  0  0  0  0  0  0  0  0
    4.2548   -6.1813  -18.9005 C   0  0  0  0  0  0  0  0  0  0  0  0
    4.3425   -6.6479  -20.3370 C   0  0  0  0  0  0  0  0  0  0  0  0
    5.1816   -7.7149  -20.6886 C   0  0  0  0  0  0  0  0  0  0  0  0
    5.2241   -8.1815  -22.0037 C   0  0  0  0  0  0  0  0  0  0  0  0
    4.4343   -7.5811  -22.9819 C   0  0  0  0  0  0  0  0  0  0  0  0
    3.6108   -6.5075  -22.6476 C   0  0  0  0  0  0  0  0  0  0  0  0
    3.5670   -6.0396  -21.3323 C   0  0  0  0  0  0  0  0  0  0  0  0
    3.5932   -2.7551   -9.6754 C   0  0  0  0  0  0  0  0  0  0  0  0
   -1.4988   -2.1178   -5.3933 C   0  0  0  0  0  0  0  0  0  0  0  0
   -2.3791   -2.8512   -4.5754 C   0  0  0  0  0  0  0  0  0  0  0  0
   -3.5981   -6.5725   -2.5659 H   0  0  0  0  0  0  0  0  0  0  0  0
   -1.8520   -6.3252   -2.6876 H   0  0  0  0  0  0  0  0  0  0  0  0
   -2.8203   -6.8041   -4.1348 H   0  0  0  0  0  0  0  0  0  0  0  0
   -0.8133   -5.8664   -4.7323 H   0  0  0  0  0  0  0  0  0  0  0  0
    0.6721   -4.6346   -6.0984 H   0  0  0  0  0  0  0  0  0  0  0  0
    0.2515   -1.0026   -6.9308 H   0  0  0  0  0  0  0  0  0  0  0  0
    2.4160   -0.6014   -7.4133 H   0  0  0  0  0  0  0  0  0  0  0  0
    4.7555   -0.3111   -7.6019 H   0  0  0  0  0  0  0  0  0  0  0  0
    6.8579   -0.8963   -8.7460 H   0  0  0  0  0  0  0  0  0  0  0  0
    6.8961   -2.6568  -10.4792 H   0  0  0  0  0  0  0  0  0  0  0  0
    4.0390   -4.9445  -11.1185 H   0  0  0  0  0  0  0  0  0  0  0  0
    5.7778   -4.7130  -11.3279 H   0  0  0  0  0  0  0  0  0  0  0  0
    5.1376   -2.7974  -12.8730 H   0  0  0  0  0  0  0  0  0  0  0  0
    3.8487   -7.6828  -14.3740 H   0  0  0  0  0  0  0  0  0  0  0  0
    5.4489   -2.0010  -15.3476 H   0  0  0  0  0  0  0  0  0  0  0  0
    6.2840   -5.4171  -18.6668 H   0  0  0  0  0  0  0  0  0  0  0  0
    5.1165   -4.2385  -19.2775 H   0  0  0  0  0  0  0  0  0  0  0  0
    3.2303   -5.8495  -18.6919 H   0  0  0  0  0  0  0  0  0  0  0  0
    4.4251   -7.0531  -18.2600 H   0  0  0  0  0  0  0  0  0  0  0  0
    5.7950   -8.2058  -19.9344 H   0  0  0  0  0  0  0  0  0  0  0  0
    5.8640   -9.0209  -22.2629 H   0  0  0  0  0  0  0  0  0  0  0  0
    4.4568   -7.9528  -24.0031 H   0  0  0  0  0  0  0  0  0  0  0  0
    2.9924   -6.0414  -23.4106 H   0  0  0  0  0  0  0  0  0  0  0  0
    2.9088   -5.2089  -21.0883 H   0  0  0  0  0  0  0  0  0  0  0  0
    2.6777   -3.2887   -9.9289 H   0  0  0  0  0  0  0  0  0  0  0  0
   -1.7120   -1.0653   -5.5673 H   0  0  0  0  0  0  0  0  0  0  0  0
   -3.2456   -2.3620   -4.1358 H   0  0  0  0  0  0  0  0  0  0  0  0
  1  2  1  0  0  0  0
  1 38  1  0  0  0  0
  1 39  1  0  0  0  0
  1 40  1  0  0  0  0
  2  3  1  0  0  0  0
  3  4  1  0  0  0  0
  3 37  2  0  0  0  0
  4  5  2  0  0  0  0
  4 41  1  0  0  0  0
  5  6  1  0  0  0  0
  5 42  1  0  0  0  0
  6  7  1  0  0  0  0
  6 36  2  0  0  0  0
  7  8  1  0  0  0  0
  7 43  1  0  0  0  0
  8  9  2  0  0  0  0
  8 10  1  0  0  0  0
 10 11  1  0  0  0  0
 10 44  1  0  0  0  0
 11 12  1  0  0  0  0
 11 35  2  0  0  0  0
 12 13  2  0  0  0  0
 12 45  1  0  0  0  0
 13 14  1  0  0  0  0
 13 46  1  0  0  0  0
 14 15  2  0  0  0  0
 14 47  1  0  0  0  0
 15 16  1  0  0  0  0
 15 35  1  0  0  0  0
 16 17  1  0  0  0  0
 16 48  1  0  0  0  0
 16 49  1  0  0  0  0
 17 18  1  0  0  0  0
 17 50  1  0  0  0  0
 18 19  1  0  0  0  0
 18 23  2  0  0  0  0
 19 20  2  0  0  0  0
 20 21  1  0  0  0  0
 20 51  1  0  0  0  0
 21 22  2  0  0  0  0
 22 23  1  0  0  0  0
 22 26  1  0  0  0  0
 23 24  1  0  0  0  0
 24 25  2  0  0  0  0
 24 52  1  0  0  0  0
 25 26  1  0  0  0  0
 26 27  1  0  0  0  0
 27 28  1  0  0  0  0
 27 53  1  0  0  0  0
 27 54  1  0  0  0  0
 28 29  1  0  0  0  0
 28 55  1  0  0  0  0
 28 56  1  0  0  0  0
 29 30  1  0  0  0  0
 29 34  2  0  0  0  0
 30 31  2  0  0  0  0
 30 57  1  0  0  0  0
 31 32  1  0  0  0  0
 31 58  1  0  0  0  0
 32 33  2  0  0  0  0
 32 59  1  0  0  0  0
 33 34  1  0  0  0  0
 33 60  1  0  0  0  0
 34 61  1  0  0  0  0
 35 62  1  0  0  0  0
 36 37  1  0  0  0  0
 36 63  1  0  0  0  0
 37 64  1  0  0  0  0
M  END
$$$$
