CHEMBL3945373
 OpenBabel04072215373D

 59 62  0  0  0  0  0  0  0  0999 V2000
    0.9734   -2.8766    3.3226 C   0  0  0  0  0  0  0  0  0  0  0  0
    2.3730   -2.7681    3.5823 O   0  0  0  0  0  0  0  0  0  0  0  0
    3.1608   -2.2487    2.5823 C   0  0  0  0  0  0  0  0  0  0  0  0
    2.6914   -1.9089    1.3095 C   0  0  0  0  0  0  0  0  0  0  0  0
    3.5549   -1.3274    0.3888 C   0  0  0  0  0  0  0  0  0  0  0  0
    3.2196   -0.9264   -0.8769 O   0  0  0  0  0  0  0  0  0  0  0  0
    1.9034   -1.2193   -1.3276 C   0  0  0  0  0  0  0  0  0  0  0  0
    4.8879   -1.0724    0.7442 C   0  0  0  0  0  0  0  0  0  0  0  0
    5.4110   -1.4020    2.0042 C   0  0  0  0  0  0  0  0  0  0  0  0
    6.7010   -0.9800    2.4205 N   0  0  0  0  0  0  0  0  0  0  0  0
    7.1765    0.3485    1.8572 C   0  0  0  0  0  0  0  0  0  0  0  0
    6.2969    1.5787    2.1996 C   0  0  0  0  0  0  0  0  0  0  0  0
    6.8560    2.8676    1.7456 N   0  0  0  0  0  0  0  0  0  0  0  0
    6.9991    3.1551    0.3978 C   0  0  0  0  0  0  0  0  0  0  0  0
    7.4363    4.5673    0.0859 C   0  0  0  0  0  0  0  0  0  0  0  0
    6.7982    2.3352   -0.4875 O   0  0  0  0  0  0  0  0  0  0  0  0
    7.8583   -1.7684    2.7800 C   0  0  0  0  0  0  0  0  0  0  0  0
    8.6439   -1.2114    3.7909 C   0  0  0  0  0  0  0  0  0  0  0  0
    9.9904   -1.5162    3.8719 C   0  0  0  0  0  0  0  0  0  0  0  0
   10.5654   -2.4729    3.0781 C   0  0  0  0  0  0  0  0  0  0  0  0
   11.9007   -2.5173    3.1697 N   0  0  0  0  0  0  0  0  0  0  0  0
   12.5075   -3.5389    2.5624 C   0  0  0  0  0  0  0  0  0  0  0  0
   11.8038   -4.5526    1.9495 C   0  0  0  0  0  0  0  0  0  0  0  0
   12.5566   -5.7777    1.6883 C   0  0  0  0  0  0  0  0  0  0  0  0
   12.6536   -6.9576    2.4733 C   0  0  0  0  0  0  0  0  0  0  0  0
   13.6264   -7.7817    2.0627 N   0  0  0  0  0  0  0  0  0  0  0  0
   14.1601   -7.1329    1.0143 N   0  0  0  0  0  0  0  0  0  0  0  0
   15.0420   -7.8194    0.0990 C   0  0  0  0  0  0  0  0  0  0  0  0
   13.6748   -5.8605    0.8724 C   0  0  0  0  0  0  0  0  0  0  0  0
   10.4385   -4.4460    1.7532 N   0  0  0  0  0  0  0  0  0  0  0  0
    9.7786   -3.3438    2.2811 C   0  0  0  0  0  0  0  0  0  0  0  0
    8.4004   -2.8996    2.0994 C   0  0  0  0  0  0  0  0  0  0  0  0
    4.5188   -2.0182    2.9105 C   0  0  0  0  0  0  0  0  0  0  0  0
    0.4706   -3.1600    4.2649 H   0  0  0  0  0  0  0  0  0  0  0  0
    0.7677   -3.6614    2.5936 H   0  0  0  0  0  0  0  0  0  0  0  0
    0.5334   -1.9226    3.0074 H   0  0  0  0  0  0  0  0  0  0  0  0
    1.6603   -2.0947    1.0426 H   0  0  0  0  0  0  0  0  0  0  0  0
    1.8282   -0.8969   -2.3705 H   0  0  0  0  0  0  0  0  0  0  0  0
    1.1568   -0.6616   -0.7519 H   0  0  0  0  0  0  0  0  0  0  0  0
    1.7028   -2.2952   -1.2973 H   0  0  0  0  0  0  0  0  0  0  0  0
    5.5101   -0.5772    0.0022 H   0  0  0  0  0  0  0  0  0  0  0  0
    7.3410    0.2522    0.7772 H   0  0  0  0  0  0  0  0  0  0  0  0
    8.1675    0.6098    2.2530 H   0  0  0  0  0  0  0  0  0  0  0  0
    6.1867    1.6723    3.2882 H   0  0  0  0  0  0  0  0  0  0  0  0
    5.2942    1.4989    1.7690 H   0  0  0  0  0  0  0  0  0  0  0  0
    6.8586    3.6348    2.3935 H   0  0  0  0  0  0  0  0  0  0  0  0
    7.4837    5.2027    0.9722 H   0  0  0  0  0  0  0  0  0  0  0  0
    6.7183    5.0093   -0.6135 H   0  0  0  0  0  0  0  0  0  0  0  0
    8.4259    4.5461   -0.3853 H   0  0  0  0  0  0  0  0  0  0  0  0
    8.2455   -0.4246    4.4228 H   0  0  0  0  0  0  0  0  0  0  0  0
   10.6212   -0.9425    4.5469 H   0  0  0  0  0  0  0  0  0  0  0  0
   13.5882   -3.5530    2.6503 H   0  0  0  0  0  0  0  0  0  0  0  0
   12.0851   -7.2354    3.3521 H   0  0  0  0  0  0  0  0  0  0  0  0
   15.1285   -8.8716    0.3844 H   0  0  0  0  0  0  0  0  0  0  0  0
   16.0240   -7.3411    0.1063 H   0  0  0  0  0  0  0  0  0  0  0  0
   14.5918   -7.7510   -0.8954 H   0  0  0  0  0  0  0  0  0  0  0  0
   14.1393   -5.1599    0.1925 H   0  0  0  0  0  0  0  0  0  0  0  0
    7.7924   -3.4272    1.3678 H   0  0  0  0  0  0  0  0  0  0  0  0
    4.8543   -2.2580    3.9171 H   0  0  0  0  0  0  0  0  0  0  0  0
  1  2  1  0  0  0  0
  1 34  1  0  0  0  0
  1 35  1  0  0  0  0
  1 36  1  0  0  0  0
  2  3  1  0  0  0  0
  3  4  1  0  0  0  0
  3 33  2  0  0  0  0
  4  5  2  0  0  0  0
  4 37  1  0  0  0  0
  5  6  1  0  0  0  0
  5  8  1  0  0  0  0
  6  7  1  0  0  0  0
  7 38  1  0  0  0  0
  7 39  1  0  0  0  0
  7 40  1  0  0  0  0
  8  9  2  0  0  0  0
  8 41  1  0  0  0  0
  9 10  1  0  0  0  0
  9 33  1  0  0  0  0
 10 11  1  0  0  0  0
 10 17  1  0  0  0  0
 11 12  1  0  0  0  0
 11 42  1  0  0  0  0
 11 43  1  0  0  0  0
 12 13  1  0  0  0  0
 12 44  1  0  0  0  0
 12 45  1  0  0  0  0
 13 14  1  0  0  0  0
 13 46  1  0  0  0  0
 14 15  1  0  0  0  0
 14 16  2  0  0  0  0
 15 47  1  0  0  0  0
 15 48  1  0  0  0  0
 15 49  1  0  0  0  0
 17 18  1  0  0  0  0
 17 32  2  0  0  0  0
 18 19  2  0  0  0  0
 18 50  1  0  0  0  0
 19 20  1  0  0  0  0
 19 51  1  0  0  0  0
 20 21  1  0  0  0  0
 20 31  2  0  0  0  0
 21 22  2  0  0  0  0
 22 23  1  0  0  0  0
 22 52  1  0  0  0  0
 23 24  1  0  0  0  0
 23 30  2  0  0  0  0
 24 25  1  0  0  0  0
 24 29  2  0  0  0  0
 25 26  2  0  0  0  0
 25 53  1  0  0  0  0
 26 27  1  0  0  0  0
 27 28  1  0  0  0  0
 27 29  1  0  0  0  0
 28 54  1  0  0  0  0
 28 55  1  0  0  0  0
 28 56  1  0  0  0  0
 29 57  1  0  0  0  0
 30 31  1  0  0  0  0
 31 32  1  0  0  0  0
 32 58  1  0  0  0  0
 33 59  1  0  0  0  0
M  END
$$$$
