CHEMBL2029988
 OpenBabel04072215363D

 59 62  0  0  0  0  0  0  0  0999 V2000
    9.6792   -2.0934   -4.5455 C   0  0  0  0  0  0  0  0  0  0  0  0
    9.9038   -0.7536   -5.0005 O   0  0  0  0  0  0  0  0  0  0  0  0
    8.9004    0.1390   -4.7227 C   0  0  0  0  0  0  0  0  0  0  0  0
    8.1125   -0.0033   -3.5692 C   0  0  0  0  0  0  0  0  0  0  0  0
    6.9900    0.7708   -3.3362 C   0  0  0  0  0  0  0  0  0  0  0  0
    6.2279    0.4620   -2.2821 N   0  0  0  0  0  0  0  0  0  0  0  0
    5.0920    1.1481   -2.1399 C   0  0  0  0  0  0  0  0  0  0  0  0
    4.6729    2.1298   -2.9320 N   0  0  0  0  0  0  0  0  0  0  0  0
    5.5026    2.4821   -3.9370 C   0  0  0  0  0  0  0  0  0  0  0  0
    5.1302    3.5558   -4.7500 O   0  0  0  0  0  0  0  0  0  0  0  0
    4.2448    4.4729   -4.2123 C   0  0  0  0  0  0  0  0  0  0  0  0
    4.3474    4.9236   -2.8913 C   0  0  0  0  0  0  0  0  0  0  0  0
    3.3834    5.7719   -2.3606 C   0  0  0  0  0  0  0  0  0  0  0  0
    2.3680    6.2591   -3.1741 C   0  0  0  0  0  0  0  0  0  0  0  0
    2.3230    5.9196   -4.5245 C   0  0  0  0  0  0  0  0  0  0  0  0
    1.3843    6.4799   -5.4028 N   0  0  0  0  0  0  0  0  0  0  0  0
    0.6321    7.6192   -5.2221 C   0  0  0  0  0  0  0  0  0  0  0  0
    0.6406    8.3462   -4.2329 O   0  0  0  0  0  0  0  0  0  0  0  0
   -0.1338    8.0084   -6.2915 N   0  0  0  0  0  0  0  0  0  0  0  0
   -0.3575    7.3051   -7.4507 C   0  0  0  0  0  0  0  0  0  0  0  0
   -0.9793    7.8101   -8.6137 C   0  0  0  0  0  0  0  0  0  0  0  0
   -0.9525    6.7588   -9.5047 C   0  0  0  0  0  0  0  0  0  0  0  0
   -1.3436    6.5497  -10.9407 C   0  0  0  0  0  0  0  0  0  0  0  0
   -1.8819    5.1113  -11.1222 C   0  0  0  0  0  0  0  0  0  0  0  0
   -2.4845    7.5154  -11.3136 C   0  0  0  0  0  0  0  0  0  0  0  0
   -0.1159    6.7745  -11.8589 C   0  0  0  0  0  0  0  0  0  0  0  0
    1.0162    7.0419  -11.1656 F   0  0  0  0  0  0  0  0  0  0  0  0
    0.1481    5.6958  -12.6326 F   0  0  0  0  0  0  0  0  0  0  0  0
   -0.3048    7.8213  -12.6986 F   0  0  0  0  0  0  0  0  0  0  0  0
   -0.3653    5.6928   -8.8999 O   0  0  0  0  0  0  0  0  0  0  0  0
    0.0086    6.0325   -7.6316 N   0  0  0  0  0  0  0  0  0  0  0  0
    3.2458    4.9914   -5.0398 C   0  0  0  0  0  0  0  0  0  0  0  0
    6.6894    1.8025   -4.2262 C   0  0  0  0  0  0  0  0  0  0  0  0
    7.5603    2.0562   -5.3111 C   0  0  0  0  0  0  0  0  0  0  0  0
    8.6497    1.2146   -5.5836 C   0  0  0  0  0  0  0  0  0  0  0  0
    9.3113    1.5882   -6.7196 O   0  0  0  0  0  0  0  0  0  0  0  0
   10.2647    0.7111   -7.2971 C   0  0  0  0  0  0  0  0  0  0  0  0
   10.0913   -2.7818   -5.2887 H   0  0  0  0  0  0  0  0  0  0  0  0
    8.6178   -2.3500   -4.4348 H   0  0  0  0  0  0  0  0  0  0  0  0
   10.2050   -2.2506   -3.5983 H   0  0  0  0  0  0  0  0  0  0  0  0
    8.3423   -0.7695   -2.8328 H   0  0  0  0  0  0  0  0  0  0  0  0
    4.4540    0.8854   -1.3033 H   0  0  0  0  0  0  0  0  0  0  0  0
    5.1499    4.5765   -2.2480 H   0  0  0  0  0  0  0  0  0  0  0  0
    3.4197    6.0493   -1.3130 H   0  0  0  0  0  0  0  0  0  0  0  0
    1.6138    6.8995   -2.7279 H   0  0  0  0  0  0  0  0  0  0  0  0
    1.3384    6.0774   -6.3335 H   0  0  0  0  0  0  0  0  0  0  0  0
   -0.5487    8.9242   -6.1878 H   0  0  0  0  0  0  0  0  0  0  0  0
   -1.3419    8.8123   -8.7934 H   0  0  0  0  0  0  0  0  0  0  0  0
   -2.7478    4.9260  -10.4751 H   0  0  0  0  0  0  0  0  0  0  0  0
   -1.1240    4.3584  -10.8732 H   0  0  0  0  0  0  0  0  0  0  0  0
   -2.1926    4.9328  -12.1572 H   0  0  0  0  0  0  0  0  0  0  0  0
   -3.3609    7.3622  -10.6721 H   0  0  0  0  0  0  0  0  0  0  0  0
   -2.8031    7.3710  -12.3518 H   0  0  0  0  0  0  0  0  0  0  0  0
   -2.1785    8.5621  -11.2004 H   0  0  0  0  0  0  0  0  0  0  0  0
    3.2032    4.6851   -6.0813 H   0  0  0  0  0  0  0  0  0  0  0  0
    7.3596    2.8879   -5.9846 H   0  0  0  0  0  0  0  0  0  0  0  0
   10.4604    1.0742   -8.3122 H   0  0  0  0  0  0  0  0  0  0  0  0
    9.8855   -0.3098   -7.3969 H   0  0  0  0  0  0  0  0  0  0  0  0
   11.2094    0.7471   -6.7468 H   0  0  0  0  0  0  0  0  0  0  0  0
  1  2  1  0  0  0  0
  1 38  1  0  0  0  0
  1 39  1  0  0  0  0
  1 40  1  0  0  0  0
  2  3  1  0  0  0  0
  3  4  1  0  0  0  0
  3 35  2  0  0  0  0
  4  5  2  0  0  0  0
  4 41  1  0  0  0  0
  5  6  1  0  0  0  0
  5 33  1  0  0  0  0
  6  7  2  0  0  0  0
  7  8  1  0  0  0  0
  7 42  1  0  0  0  0
  8  9  2  0  0  0  0
  9 10  1  0  0  0  0
  9 33  1  0  0  0  0
 10 11  1  0  0  0  0
 11 12  1  0  0  0  0
 11 32  2  0  0  0  0
 12 13  2  0  0  0  0
 12 43  1  0  0  0  0
 13 14  1  0  0  0  0
 13 44  1  0  0  0  0
 14 15  2  0  0  0  0
 14 45  1  0  0  0  0
 15 16  1  0  0  0  0
 15 32  1  0  0  0  0
 16 17  1  0  0  0  0
 16 46  1  0  0  0  0
 17 18  2  0  0  0  0
 17 19  1  0  0  0  0
 19 20  1  0  0  0  0
 19 47  1  0  0  0  0
 20 21  1  0  0  0  0
 20 31  2  0  0  0  0
 21 22  2  0  0  0  0
 21 48  1  0  0  0  0
 22 23  1  0  0  0  0
 22 30  1  0  0  0  0
 23 24  1  0  0  0  0
 23 25  1  0  0  0  0
 23 26  1  0  0  0  0
 24 49  1  0  0  0  0
 24 50  1  0  0  0  0
 24 51  1  0  0  0  0
 25 52  1  0  0  0  0
 25 53  1  0  0  0  0
 25 54  1  0  0  0  0
 26 27  1  0  0  0  0
 26 28  1  0  0  0  0
 26 29  1  0  0  0  0
 30 31  1  0  0  0  0
 32 55  1  0  0  0  0
 33 34  2  0  0  0  0
 34 35  1  0  0  0  0
 34 56  1  0  0  0  0
 35 36  1  0  0  0  0
 36 37  1  0  0  0  0
 37 57  1  0  0  0  0
 37 58  1  0  0  0  0
 37 59  1  0  0  0  0
M  END
$$$$
