CHEMBL1993335
 OpenBabel04072215363D

 31 34  0  0  0  0  0  0  0  0999 V2000
    1.0803   -0.0558    0.1273 C   0  0  0  0  0  0  0  0  0  0  0  0
    2.5260   -0.0455    0.1317 N   0  0  0  0  0  0  0  0  0  0  0  0
    3.2982    1.0856    0.1528 C   0  0  0  0  0  0  0  0  0  0  0  0
    4.6204    0.7038    0.0802 C   0  0  0  0  0  0  0  0  0  0  0  0
    5.7509    1.6719    0.0146 C   0  0  0  0  0  0  0  0  0  0  0  0
    5.6812    3.0538    0.0979 C   0  0  0  0  0  0  0  0  0  0  0  0
    6.9963    3.5575   -0.0419 C   0  0  0  0  0  0  0  0  0  0  0  0
    7.4673    4.8324   -0.0365 N   0  0  0  0  0  0  0  0  0  0  0  0
    8.8085    4.8980   -0.2184 C   0  0  0  0  0  0  0  0  0  0  0  0
    9.6140    6.6161   -0.2287 Br  0  0  0  0  0  0  0  0  0  0  0  0
    9.6225    3.7797   -0.3956 C   0  0  0  0  0  0  0  0  0  0  0  0
    9.1739    2.4973   -0.3997 N   0  0  0  0  0  0  0  0  0  0  0  0
    7.8389    2.4651   -0.2135 C   0  0  0  0  0  0  0  0  0  0  0  0
    7.0706    1.3395   -0.1668 N   0  0  0  0  0  0  0  0  0  0  0  0
    4.6568   -0.7268    0.0673 C   0  0  0  0  0  0  0  0  0  0  0  0
    5.6762   -1.7039    0.0376 C   0  0  0  0  0  0  0  0  0  0  0  0
    5.3352   -3.0555    0.0299 C   0  0  0  0  0  0  0  0  0  0  0  0
    6.3136   -3.9700    0.0023 F   0  0  0  0  0  0  0  0  0  0  0  0
    4.0154   -3.4719    0.0517 C   0  0  0  0  0  0  0  0  0  0  0  0
    2.9827   -2.5340    0.0868 C   0  0  0  0  0  0  0  0  0  0  0  0
    3.3260   -1.1695    0.0966 C   0  0  0  0  0  0  0  0  0  0  0  0
    0.7051    0.9707    0.1215 H   0  0  0  0  0  0  0  0  0  0  0  0
    0.7339   -0.5735    1.0251 H   0  0  0  0  0  0  0  0  0  0  0  0
    0.7425   -0.5749   -0.7738 H   0  0  0  0  0  0  0  0  0  0  0  0
    2.8411    2.0659    0.1920 H   0  0  0  0  0  0  0  0  0  0  0  0
    4.7897    3.6481    0.2393 H   0  0  0  0  0  0  0  0  0  0  0  0
   10.6930    3.8818   -0.5450 H   0  0  0  0  0  0  0  0  0  0  0  0
    7.4470    0.4151   -0.2865 H   0  0  0  0  0  0  0  0  0  0  0  0
    6.7269   -1.4494    0.0320 H   0  0  0  0  0  0  0  0  0  0  0  0
    3.7941   -4.5345    0.0459 H   0  0  0  0  0  0  0  0  0  0  0  0
    1.9473   -2.8593    0.1082 H   0  0  0  0  0  0  0  0  0  0  0  0
  1  2  1  0  0  0  0
  1 22  1  0  0  0  0
  1 23  1  0  0  0  0
  1 24  1  0  0  0  0
  2  3  1  0  0  0  0
  2 21  1  0  0  0  0
  3  4  2  0  0  0  0
  3 25  1  0  0  0  0
  4  5  1  0  0  0  0
  4 15  1  0  0  0  0
  5  6  2  0  0  0  0
  5 14  1  0  0  0  0
  6  7  1  0  0  0  0
  6 26  1  0  0  0  0
  7  8  1  0  0  0  0
  7 13  2  0  0  0  0
  8  9  2  0  0  0  0
  9 10  1  0  0  0  0
  9 11  1  0  0  0  0
 11 12  2  0  0  0  0
 11 27  1  0  0  0  0
 12 13  1  0  0  0  0
 13 14  1  0  0  0  0
 14 28  1  0  0  0  0
 15 16  1  0  0  0  0
 15 21  2  0  0  0  0
 16 17  2  0  0  0  0
 16 29  1  0  0  0  0
 17 18  1  0  0  0  0
 17 19  1  0  0  0  0
 19 20  2  0  0  0  0
 19 30  1  0  0  0  0
 20 21  1  0  0  0  0
 20 31  1  0  0  0  0
M  END
$$$$
