CHEMBL597586
 OpenBabel04072215383D

 37 40  0  0  0  0  0  0  0  0999 V2000
    1.1699   -0.5934    0.6590 O   0  0  0  0  0  0  0  0  0  0  0  0
    2.2948   -0.2623    0.2757 C   0  0  0  0  0  0  0  0  0  0  0  0
    2.9704   -0.9603   -0.8798 C   0  0  0  0  0  0  0  0  0  0  0  0
    4.2187   -1.6200   -0.4179 C   0  0  0  0  0  0  0  0  0  0  0  0
    4.3600   -2.9869   -0.3496 C   0  0  0  0  0  0  0  0  0  0  0  0
    5.4558   -3.6044    0.1232 N   0  0  0  0  0  0  0  0  0  0  0  0
    6.4667   -2.8163    0.5102 C   0  0  0  0  0  0  0  0  0  0  0  0
    7.5907   -3.4566    1.0243 N   0  0  0  0  0  0  0  0  0  0  0  0
    8.9074   -2.9904    1.0937 C   0  0  0  0  0  0  0  0  0  0  0  0
    9.7548   -3.4395    2.1141 C   0  0  0  0  0  0  0  0  0  0  0  0
   11.0350   -2.8955    2.2681 C   0  0  0  0  0  0  0  0  0  0  0  0
   11.4812   -1.9090    1.3904 C   0  0  0  0  0  0  0  0  0  0  0  0
   13.1894   -1.1377    1.6175 Br  0  0  0  0  0  0  0  0  0  0  0  0
   10.6622   -1.4719    0.3540 C   0  0  0  0  0  0  0  0  0  0  0  0
    9.3849   -2.0075    0.2168 C   0  0  0  0  0  0  0  0  0  0  0  0
    6.4237   -1.4730    0.4582 N   0  0  0  0  0  0  0  0  0  0  0  0
    5.2945   -0.8782    0.0238 C   0  0  0  0  0  0  0  0  0  0  0  0
    5.2799    0.6017    0.0548 C   0  0  0  0  0  0  0  0  0  0  0  0
    6.4350    1.3102   -0.3370 C   0  0  0  0  0  0  0  0  0  0  0  0
    6.4847    2.7065   -0.3115 C   0  0  0  0  0  0  0  0  0  0  0  0
    5.3997    3.4300    0.1665 C   0  0  0  0  0  0  0  0  0  0  0  0
    4.2598    2.7585    0.6002 C   0  0  0  0  0  0  0  0  0  0  0  0
    4.1692    1.3616    0.4945 C   0  0  0  0  0  0  0  0  0  0  0  0
    2.9157    0.8174    0.8386 N   0  0  0  0  0  0  0  0  0  0  0  0
    3.1832   -0.2384   -1.6790 H   0  0  0  0  0  0  0  0  0  0  0  0
    2.2765   -1.6900   -1.3094 H   0  0  0  0  0  0  0  0  0  0  0  0
    3.5656   -3.6554   -0.6737 H   0  0  0  0  0  0  0  0  0  0  0  0
    7.4387   -4.4474    1.1287 H   0  0  0  0  0  0  0  0  0  0  0  0
    9.4072   -4.1834    2.8270 H   0  0  0  0  0  0  0  0  0  0  0  0
   11.6659   -3.2314    3.0861 H   0  0  0  0  0  0  0  0  0  0  0  0
   10.9979   -0.7069   -0.3436 H   0  0  0  0  0  0  0  0  0  0  0  0
    8.7566   -1.6508   -0.5957 H   0  0  0  0  0  0  0  0  0  0  0  0
    7.3137    0.7636   -0.6778 H   0  0  0  0  0  0  0  0  0  0  0  0
    7.3750    3.2252   -0.6576 H   0  0  0  0  0  0  0  0  0  0  0  0
    5.4331    4.5162    0.1905 H   0  0  0  0  0  0  0  0  0  0  0  0
    3.4160    3.3431    0.9588 H   0  0  0  0  0  0  0  0  0  0  0  0
    2.3056    1.3559    1.4430 H   0  0  0  0  0  0  0  0  0  0  0  0
  1  2  2  0  0  0  0
  2  3  1  0  0  0  0
  2 24  1  0  0  0  0
  3  4  1  0  0  0  0
  3 25  1  0  0  0  0
  3 26  1  0  0  0  0
  4  5  1  0  0  0  0
  4 17  2  0  0  0  0
  5  6  2  0  0  0  0
  5 27  1  0  0  0  0
  6  7  1  0  0  0  0
  7  8  1  0  0  0  0
  7 16  2  0  0  0  0
  8  9  1  0  0  0  0
  8 28  1  0  0  0  0
  9 10  1  0  0  0  0
  9 15  2  0  0  0  0
 10 11  2  0  0  0  0
 10 29  1  0  0  0  0
 11 12  1  0  0  0  0
 11 30  1  0  0  0  0
 12 13  1  0  0  0  0
 12 14  2  0  0  0  0
 14 15  1  0  0  0  0
 14 31  1  0  0  0  0
 15 32  1  0  0  0  0
 16 17  1  0  0  0  0
 17 18  1  0  0  0  0
 18 19  1  0  0  0  0
 18 23  2  0  0  0  0
 19 20  2  0  0  0  0
 19 33  1  0  0  0  0
 20 21  1  0  0  0  0
 20 34  1  0  0  0  0
 21 22  2  0  0  0  0
 21 35  1  0  0  0  0
 22 23  1  0  0  0  0
 22 36  1  0  0  0  0
 23 24  1  0  0  0  0
 24 37  1  0  0  0  0
M  END
$$$$
