CHEMBL3128218
 OpenBabel04072215363D

 68 72  0  0  0  0  0  0  0  0999 V2000
   13.5426   -0.8659    4.5535 C   0  0  0  0  0  0  0  0  0  0  0  0
   12.2997   -0.1706    4.6001 O   0  0  0  0  0  0  0  0  0  0  0  0
   11.1632   -0.9342    4.5727 C   0  0  0  0  0  0  0  0  0  0  0  0
   11.1529   -2.2608    4.9990 C   0  0  0  0  0  0  0  0  0  0  0  0
    9.9687   -2.9980    5.0298 C   0  0  0  0  0  0  0  0  0  0  0  0
    8.7465   -2.4323    4.6744 C   0  0  0  0  0  0  0  0  0  0  0  0
    7.5268   -3.1610    4.7174 N   0  0  0  0  0  0  0  0  0  0  0  0
    7.3795   -4.4535    5.2073 C   0  0  0  0  0  0  0  0  0  0  0  0
    8.2627   -5.1116    5.7468 O   0  0  0  0  0  0  0  0  0  0  0  0
    6.1119   -4.9686    4.9665 N   0  0  0  0  0  0  0  0  0  0  0  0
    5.7846   -6.2892    5.3738 C   0  0  0  0  0  0  0  0  0  0  0  0
    5.1391   -7.1270    4.4641 C   0  0  0  0  0  0  0  0  0  0  0  0
    4.8664   -8.4530    4.8081 C   0  0  0  0  0  0  0  0  0  0  0  0
    5.2039   -8.9393    6.0740 C   0  0  0  0  0  0  0  0  0  0  0  0
    5.8377   -8.1096    7.0101 C   0  0  0  0  0  0  0  0  0  0  0  0
    6.1865   -8.6295    8.3933 C   0  0  0  0  0  0  0  0  0  0  0  0
    5.0354   -8.4538    9.2604 N   0  0  0  0  0  0  0  0  0  0  0  0
    5.1426   -8.8579   10.5870 C   0  0  0  0  0  0  0  0  0  0  0  0
    6.3479   -8.9294   11.2031 N   0  0  0  0  0  0  0  0  0  0  0  0
    6.3952   -9.2570   12.5119 C   0  0  0  0  0  0  0  0  0  0  0  0
    5.3724   -9.5560   13.3343 N   0  0  0  0  0  0  0  0  0  0  0  0
    4.1924   -9.4840   12.6932 C   0  0  0  0  0  0  0  0  0  0  0  0
    4.0085   -9.1597   11.3589 C   0  0  0  0  0  0  0  0  0  0  0  0
    2.6185   -9.2333   11.1691 C   0  0  0  0  0  0  0  0  0  0  0  0
    1.9554   -9.5674   12.2766 N   0  0  0  0  0  0  0  0  0  0  0  0
    2.9339   -9.6778   13.2131 N   0  0  0  0  0  0  0  0  0  0  0  0
    2.5360   -9.9892   14.5780 C   0  0  0  0  0  0  0  0  0  0  0  0
    3.4128   -9.3807   15.6741 C   0  0  0  0  0  0  0  0  0  0  0  0
    2.9624   -9.6001   17.1048 C   0  0  0  0  0  0  0  0  0  0  0  0
    3.9461   -9.7134   18.1024 C   0  0  0  0  0  0  0  0  0  0  0  0
    3.5978   -9.8286   19.4489 C   0  0  0  0  0  0  0  0  0  0  0  0
    2.2565   -9.8283   19.8212 C   0  0  0  0  0  0  0  0  0  0  0  0
    1.2667   -9.7152   18.8474 C   0  0  0  0  0  0  0  0  0  0  0  0
    1.6170   -9.5965   17.4972 C   0  0  0  0  0  0  0  0  0  0  0  0
    6.1156   -6.7792    6.6480 C   0  0  0  0  0  0  0  0  0  0  0  0
    8.7494   -1.1000    4.2430 C   0  0  0  0  0  0  0  0  0  0  0  0
    9.9537   -0.3549    4.1681 C   0  0  0  0  0  0  0  0  0  0  0  0
    9.7702    0.9347    3.7181 O   0  0  0  0  0  0  0  0  0  0  0  0
   10.8733    1.5238    3.0357 C   0  0  0  0  0  0  0  0  0  0  0  0
   14.3419   -0.1214    4.4972 H   0  0  0  0  0  0  0  0  0  0  0  0
   13.6027   -1.4948    3.6588 H   0  0  0  0  0  0  0  0  0  0  0  0
   13.7152   -1.4522    5.4616 H   0  0  0  0  0  0  0  0  0  0  0  0
   12.0478   -2.7658    5.3462 H   0  0  0  0  0  0  0  0  0  0  0  0
   10.0581   -4.0212    5.3711 H   0  0  0  0  0  0  0  0  0  0  0  0
    6.6821   -2.6598    4.4804 H   0  0  0  0  0  0  0  0  0  0  0  0
    5.6891   -4.6502    4.1073 H   0  0  0  0  0  0  0  0  0  0  0  0
    4.9013   -6.7832    3.4617 H   0  0  0  0  0  0  0  0  0  0  0  0
    4.4060   -9.1157    4.0795 H   0  0  0  0  0  0  0  0  0  0  0  0
    4.9792   -9.9744    6.3223 H   0  0  0  0  0  0  0  0  0  0  0  0
    7.0674   -8.0987    8.7739 H   0  0  0  0  0  0  0  0  0  0  0  0
    6.4538   -9.6920    8.3186 H   0  0  0  0  0  0  0  0  0  0  0  0
    4.1501   -8.6848    8.8315 H   0  0  0  0  0  0  0  0  0  0  0  0
    7.3858   -9.2798   12.9590 H   0  0  0  0  0  0  0  0  0  0  0  0
    2.0620   -9.0665   10.2559 H   0  0  0  0  0  0  0  0  0  0  0  0
    2.5001  -11.0821   14.6567 H   0  0  0  0  0  0  0  0  0  0  0  0
    1.5094   -9.6166   14.6771 H   0  0  0  0  0  0  0  0  0  0  0  0
    3.5073   -8.2988   15.5170 H   0  0  0  0  0  0  0  0  0  0  0  0
    4.4177   -9.8076   15.5842 H   0  0  0  0  0  0  0  0  0  0  0  0
    5.0012   -9.6990   17.8348 H   0  0  0  0  0  0  0  0  0  0  0  0
    4.3744   -9.9066   20.2051 H   0  0  0  0  0  0  0  0  0  0  0  0
    1.9847   -9.9020   20.8708 H   0  0  0  0  0  0  0  0  0  0  0  0
    0.2208   -9.7066   19.1375 H   0  0  0  0  0  0  0  0  0  0  0  0
    0.8155   -9.4856   16.7716 H   0  0  0  0  0  0  0  0  0  0  0  0
    6.5984   -6.1245    7.3719 H   0  0  0  0  0  0  0  0  0  0  0  0
    7.8230   -0.6144    3.9442 H   0  0  0  0  0  0  0  0  0  0  0  0
   10.4961    2.3776    2.4648 H   0  0  0  0  0  0  0  0  0  0  0  0
   11.3342    0.8302    2.3232 H   0  0  0  0  0  0  0  0  0  0  0  0
   11.6092    1.9206    3.7426 H   0  0  0  0  0  0  0  0  0  0  0  0
  1  2  1  0  0  0  0
  1 40  1  0  0  0  0
  1 41  1  0  0  0  0
  1 42  1  0  0  0  0
  2  3  1  0  0  0  0
  3  4  1  0  0  0  0
  3 37  2  0  0  0  0
  4  5  2  0  0  0  0
  4 43  1  0  0  0  0
  5  6  1  0  0  0  0
  5 44  1  0  0  0  0
  6  7  1  0  0  0  0
  6 36  2  0  0  0  0
  7  8  1  0  0  0  0
  7 45  1  0  0  0  0
  8  9  2  0  0  0  0
  8 10  1  0  0  0  0
 10 11  1  0  0  0  0
 10 46  1  0  0  0  0
 11 12  1  0  0  0  0
 11 35  2  0  0  0  0
 12 13  2  0  0  0  0
 12 47  1  0  0  0  0
 13 14  1  0  0  0  0
 13 48  1  0  0  0  0
 14 15  2  0  0  0  0
 14 49  1  0  0  0  0
 15 16  1  0  0  0  0
 15 35  1  0  0  0  0
 16 17  1  0  0  0  0
 16 50  1  0  0  0  0
 16 51  1  0  0  0  0
 17 18  1  0  0  0  0
 17 52  1  0  0  0  0
 18 19  1  0  0  0  0
 18 23  2  0  0  0  0
 19 20  2  0  0  0  0
 20 21  1  0  0  0  0
 20 53  1  0  0  0  0
 21 22  2  0  0  0  0
 22 23  1  0  0  0  0
 22 26  1  0  0  0  0
 23 24  1  0  0  0  0
 24 25  2  0  0  0  0
 24 54  1  0  0  0  0
 25 26  1  0  0  0  0
 26 27  1  0  0  0  0
 27 28  1  0  0  0  0
 27 55  1  0  0  0  0
 27 56  1  0  0  0  0
 28 29  1  0  0  0  0
 28 57  1  0  0  0  0
 28 58  1  0  0  0  0
 29 30  1  0  0  0  0
 29 34  2  0  0  0  0
 30 31  2  0  0  0  0
 30 59  1  0  0  0  0
 31 32  1  0  0  0  0
 31 60  1  0  0  0  0
 32 33  2  0  0  0  0
 32 61  1  0  0  0  0
 33 34  1  0  0  0  0
 33 62  1  0  0  0  0
 34 63  1  0  0  0  0
 35 64  1  0  0  0  0
 36 37  1  0  0  0  0
 36 65  1  0  0  0  0
 37 38  1  0  0  0  0
 38 39  1  0  0  0  0
 39 66  1  0  0  0  0
 39 67  1  0  0  0  0
 39 68  1  0  0  0  0
M  END
$$$$
