CHEMBL3621296
 OpenBabel04072215363D

 47 49  0  0  0  0  0  0  0  0999 V2000
    3.8874   -3.3714   -5.1379 O   0  0  0  0  0  0  0  0  0  0  0  0
    2.6698   -3.5261   -5.1726 C   0  0  0  0  0  0  0  0  0  0  0  0
    1.6537   -2.4071   -5.0889 C   0  0  0  0  0  0  0  0  0  0  0  0
    2.3158   -1.0376   -4.9885 C   0  0  0  0  0  0  0  0  0  0  0  0
    1.2735    0.0834   -4.9378 C   0  0  0  0  0  0  0  0  0  0  0  0
    1.9199    1.4649   -4.8780 C   0  0  0  0  0  0  0  0  0  0  0  0
    2.8145    1.7178   -6.0751 C   0  0  0  0  0  0  0  0  0  0  0  0
    4.0318    1.8118   -5.9531 O   0  0  0  0  0  0  0  0  0  0  0  0
    2.1136    1.8438   -7.2639 N   0  0  0  0  0  0  0  0  0  0  0  0
    2.7664    2.0941   -8.4856 C   0  0  0  0  0  0  0  0  0  0  0  0
    2.2561    3.1333   -9.2860 C   0  0  0  0  0  0  0  0  0  0  0  0
    2.9213    3.5251  -10.4461 C   0  0  0  0  0  0  0  0  0  0  0  0
    4.0448    2.8092  -10.8037 C   0  0  0  0  0  0  0  0  0  0  0  0
    4.5201    1.7170  -10.0699 C   0  0  0  0  0  0  0  0  0  0  0  0
    3.8972    1.3600   -8.8853 C   0  0  0  0  0  0  0  0  0  0  0  0
    5.7079    1.2297  -10.7935 C   0  0  0  0  0  0  0  0  0  0  0  0
    6.4345    0.1469  -10.4778 C   0  0  0  0  0  0  0  0  0  0  0  0
    7.5875   -0.2431  -11.1967 C   0  0  0  0  0  0  0  0  0  0  0  0
    7.8151   -0.9656  -12.3509 C   0  0  0  0  0  0  0  0  0  0  0  0
    9.2182   -1.0209  -12.5534 C   0  0  0  0  0  0  0  0  0  0  0  0
    9.8089   -0.3330  -11.5179 C   0  0  0  0  0  0  0  0  0  0  0  0
    8.8122    0.1391  -10.7035 N   0  0  0  0  0  0  0  0  0  0  0  0
    5.9270    2.1749  -11.9546 C   0  0  0  0  0  0  0  0  0  0  0  0
    6.8201    2.1957  -12.7794 O   0  0  0  0  0  0  0  0  0  0  0  0
    4.8675    3.0690  -11.8907 N   0  0  0  0  0  0  0  0  0  0  0  0
    2.0974   -4.7663   -5.2985 N   0  0  0  0  0  0  0  0  0  0  0  0
    2.9771   -5.8673   -5.3637 O   0  0  0  0  0  0  0  0  0  0  0  0
    1.0184   -2.5813   -4.2133 H   0  0  0  0  0  0  0  0  0  0  0  0
    1.0250   -2.4494   -5.9862 H   0  0  0  0  0  0  0  0  0  0  0  0
    2.9778   -0.9012   -5.8523 H   0  0  0  0  0  0  0  0  0  0  0  0
    2.9516   -0.9911   -4.0956 H   0  0  0  0  0  0  0  0  0  0  0  0
    0.6387   -0.0474   -4.0530 H   0  0  0  0  0  0  0  0  0  0  0  0
    0.6167    0.0153   -5.8132 H   0  0  0  0  0  0  0  0  0  0  0  0
    2.5208    1.5675   -3.9669 H   0  0  0  0  0  0  0  0  0  0  0  0
    1.1483    2.2433   -4.8395 H   0  0  0  0  0  0  0  0  0  0  0  0
    1.1657    2.1876   -7.1732 H   0  0  0  0  0  0  0  0  0  0  0  0
    1.3847    3.6986   -8.9650 H   0  0  0  0  0  0  0  0  0  0  0  0
    2.5797    4.3751  -11.0237 H   0  0  0  0  0  0  0  0  0  0  0  0
    4.2733    0.5417   -8.2795 H   0  0  0  0  0  0  0  0  0  0  0  0
    6.1562   -0.4712   -9.6291 H   0  0  0  0  0  0  0  0  0  0  0  0
    7.0569   -1.3956  -12.9919 H   0  0  0  0  0  0  0  0  0  0  0  0
    9.7384   -1.4982  -13.3739 H   0  0  0  0  0  0  0  0  0  0  0  0
   10.8470   -0.1231  -11.2989 H   0  0  0  0  0  0  0  0  0  0  0  0
    8.9552    0.7064   -9.8789 H   0  0  0  0  0  0  0  0  0  0  0  0
    4.7720    3.8301  -12.5431 H   0  0  0  0  0  0  0  0  0  0  0  0
    1.1032   -4.9612   -5.2865 H   0  0  0  0  0  0  0  0  0  0  0  0
    3.8581   -5.4335   -5.3112 H   0  0  0  0  0  0  0  0  0  0  0  0
  1  2  2  0  0  0  0
  2  3  1  0  0  0  0
  2 26  1  0  0  0  0
  3  4  1  0  0  0  0
  3 28  1  0  0  0  0
  3 29  1  0  0  0  0
  4  5  1  0  0  0  0
  4 30  1  0  0  0  0
  4 31  1  0  0  0  0
  5  6  1  0  0  0  0
  5 32  1  0  0  0  0
  5 33  1  0  0  0  0
  6  7  1  0  0  0  0
  6 34  1  0  0  0  0
  6 35  1  0  0  0  0
  7  8  2  0  0  0  0
  7  9  1  0  0  0  0
  9 10  1  0  0  0  0
  9 36  1  0  0  0  0
 10 11  1  0  0  0  0
 10 15  2  0  0  0  0
 11 12  2  0  0  0  0
 11 37  1  0  0  0  0
 12 13  1  0  0  0  0
 12 38  1  0  0  0  0
 13 14  2  0  0  0  0
 13 25  1  0  0  0  0
 14 15  1  0  0  0  0
 14 16  1  0  0  0  0
 15 39  1  0  0  0  0
 16 17  2  0  0  0  0
 16 23  1  0  0  0  0
 17 18  1  0  0  0  0
 17 40  1  0  0  0  0
 18 19  2  0  0  0  0
 18 22  1  0  0  0  0
 19 20  1  0  0  0  0
 19 41  1  0  0  0  0
 20 21  2  0  0  0  0
 20 42  1  0  0  0  0
 21 22  1  0  0  0  0
 21 43  1  0  0  0  0
 22 44  1  0  0  0  0
 23 24  2  0  0  0  0
 23 25  1  0  0  0  0
 25 45  1  0  0  0  0
 26 27  1  0  0  0  0
 26 46  1  0  0  0  0
 27 47  1  0  0  0  0
M  END
$$$$
