CHEMBL494872
 OpenBabel04072215383D

 63 67  0  0  0  0  0  0  0  0999 V2000
    9.3714    5.3117    9.3806 C   0  0  0  0  0  0  0  0  0  0  0  0
    7.9438    5.3142    9.2559 O   0  0  0  0  0  0  0  0  0  0  0  0
    7.3853    4.1328    8.8429 C   0  0  0  0  0  0  0  0  0  0  0  0
    7.9633    2.8964    9.1808 C   0  0  0  0  0  0  0  0  0  0  0  0
    7.5204    1.6895    8.6550 C   0  0  0  0  0  0  0  0  0  0  0  0
    8.2114    0.5810    8.9607 N   0  0  0  0  0  0  0  0  0  0  0  0
    7.8485   -0.5752    8.3706 C   0  0  0  0  0  0  0  0  0  0  0  0
    6.8100   -0.6820    7.4688 C   0  0  0  0  0  0  0  0  0  0  0  0
    6.0665    0.4616    7.1531 C   0  0  0  0  0  0  0  0  0  0  0  0
    5.0720    0.3690    6.0143 C   0  0  0  0  0  0  0  0  0  0  0  0
    4.0270   -0.6356    6.2036 N   0  0  0  0  0  0  0  0  0  0  0  0
    2.7792   -0.2033    6.8067 C   0  0  0  0  0  0  0  0  0  0  0  0
    1.9419   -1.3662    7.3417 C   0  0  0  0  0  0  0  0  0  0  0  0
    1.7892   -2.4645    6.3146 C   0  0  0  0  0  0  0  0  0  0  0  0
    0.7094   -3.3840    6.2861 C   0  0  0  0  0  0  0  0  0  0  0  0
   -0.3751   -3.3928    7.3221 C   0  0  0  0  0  0  0  0  0  0  0  0
   -0.7162   -2.3357    7.8336 O   0  0  0  0  0  0  0  0  0  0  0  0
   -0.9003   -4.6446    7.6487 N   0  0  0  0  0  0  0  0  0  0  0  0
   -1.9670   -4.8902    8.5471 C   0  0  0  0  0  0  0  0  0  0  0  0
   -2.7855   -3.8734    9.0512 C   0  0  0  0  0  0  0  0  0  0  0  0
   -3.8078   -4.1619    9.9579 C   0  0  0  0  0  0  0  0  0  0  0  0
   -4.0160   -5.4684   10.3641 C   0  0  0  0  0  0  0  0  0  0  0  0
   -5.0009   -5.7045   11.2388 F   0  0  0  0  0  0  0  0  0  0  0  0
   -3.2430   -6.5077    9.8788 C   0  0  0  0  0  0  0  0  0  0  0  0
   -3.4694   -7.9218   10.3374 C   0  0  0  0  0  0  0  0  0  0  0  0
   -4.4438   -8.0748   11.2726 F   0  0  0  0  0  0  0  0  0  0  0  0
   -3.8110   -8.7439    9.3061 F   0  0  0  0  0  0  0  0  0  0  0  0
   -2.3451   -8.4651   10.8826 F   0  0  0  0  0  0  0  0  0  0  0  0
   -2.2148   -6.2089    8.9487 C   0  0  0  0  0  0  0  0  0  0  0  0
    0.6116   -4.3074    5.2271 C   0  0  0  0  0  0  0  0  0  0  0  0
    1.6059   -4.3898    4.2544 C   0  0  0  0  0  0  0  0  0  0  0  0
    2.7206   -3.5660    4.3389 C   0  0  0  0  0  0  0  0  0  0  0  0
    2.8195   -2.6118    5.3620 C   0  0  0  0  0  0  0  0  0  0  0  0
    4.0548   -1.7753    5.4079 C   0  0  0  0  0  0  0  0  0  0  0  0
    5.0353   -2.1129    4.7505 O   0  0  0  0  0  0  0  0  0  0  0  0
    6.4124    1.6883    7.7842 C   0  0  0  0  0  0  0  0  0  0  0  0
    5.7456    2.9148    7.5739 C   0  0  0  0  0  0  0  0  0  0  0  0
    6.2207    4.1358    8.0763 C   0  0  0  0  0  0  0  0  0  0  0  0
    5.4336    5.1695    7.6581 O   0  0  0  0  0  0  0  0  0  0  0  0
    5.7321    6.5090    8.0030 C   0  0  0  0  0  0  0  0  0  0  0  0
    9.7441    6.2914    9.0659 H   0  0  0  0  0  0  0  0  0  0  0  0
    9.8687    4.5674    8.7471 H   0  0  0  0  0  0  0  0  0  0  0  0
    9.6462    5.1596   10.4290 H   0  0  0  0  0  0  0  0  0  0  0  0
    8.8205    2.8525    9.8481 H   0  0  0  0  0  0  0  0  0  0  0  0
    8.4600   -1.4367    8.6242 H   0  0  0  0  0  0  0  0  0  0  0  0
    6.6127   -1.6336    6.9826 H   0  0  0  0  0  0  0  0  0  0  0  0
    5.6453    0.1534    5.1028 H   0  0  0  0  0  0  0  0  0  0  0  0
    4.5682    1.3160    5.8050 H   0  0  0  0  0  0  0  0  0  0  0  0
    2.2216    0.3407    6.0328 H   0  0  0  0  0  0  0  0  0  0  0  0
    2.9980    0.4967    7.6210 H   0  0  0  0  0  0  0  0  0  0  0  0
    0.9806   -0.9261    7.6134 H   0  0  0  0  0  0  0  0  0  0  0  0
    2.4018   -1.7858    8.2425 H   0  0  0  0  0  0  0  0  0  0  0  0
   -0.4223   -5.4625    7.2910 H   0  0  0  0  0  0  0  0  0  0  0  0
   -2.6687   -2.8404    8.7467 H   0  0  0  0  0  0  0  0  0  0  0  0
   -4.4352   -3.3644   10.3437 H   0  0  0  0  0  0  0  0  0  0  0  0
   -1.6054   -7.0283    8.5651 H   0  0  0  0  0  0  0  0  0  0  0  0
   -0.2564   -4.9562    5.1264 H   0  0  0  0  0  0  0  0  0  0  0  0
    1.5171   -5.0988    3.4344 H   0  0  0  0  0  0  0  0  0  0  0  0
    3.5100   -3.6517    3.5939 H   0  0  0  0  0  0  0  0  0  0  0  0
    4.8343    2.9551    6.9847 H   0  0  0  0  0  0  0  0  0  0  0  0
    5.1384    7.1425    7.3342 H   0  0  0  0  0  0  0  0  0  0  0  0
    6.7770    6.7739    7.8292 H   0  0  0  0  0  0  0  0  0  0  0  0
    5.4148    6.7250    9.0271 H   0  0  0  0  0  0  0  0  0  0  0  0
  1  2  1  0  0  0  0
  1 41  1  0  0  0  0
  1 42  1  0  0  0  0
  1 43  1  0  0  0  0
  2  3  1  0  0  0  0
  3  4  1  0  0  0  0
  3 38  2  0  0  0  0
  4  5  2  0  0  0  0
  4 44  1  0  0  0  0
  5  6  1  0  0  0  0
  5 36  1  0  0  0  0
  6  7  2  0  0  0  0
  7  8  1  0  0  0  0
  7 45  1  0  0  0  0
  8  9  2  0  0  0  0
  8 46  1  0  0  0  0
  9 10  1  0  0  0  0
  9 36  1  0  0  0  0
 10 11  1  0  0  0  0
 10 47  1  0  0  0  0
 10 48  1  0  0  0  0
 11 12  1  0  0  0  0
 11 34  1  0  0  0  0
 12 13  1  0  0  0  0
 12 49  1  0  0  0  0
 12 50  1  0  0  0  0
 13 14  1  0  0  0  0
 13 51  1  0  0  0  0
 13 52  1  0  0  0  0
 14 15  1  0  0  0  0
 14 33  2  0  0  0  0
 15 16  1  0  0  0  0
 15 30  2  0  0  0  0
 16 17  2  0  0  0  0
 16 18  1  0  0  0  0
 18 19  1  0  0  0  0
 18 53  1  0  0  0  0
 19 20  1  0  0  0  0
 19 29  2  0  0  0  0
 20 21  2  0  0  0  0
 20 54  1  0  0  0  0
 21 22  1  0  0  0  0
 21 55  1  0  0  0  0
 22 23  1  0  0  0  0
 22 24  2  0  0  0  0
 24 25  1  0  0  0  0
 24 29  1  0  0  0  0
 25 26  1  0  0  0  0
 25 27  1  0  0  0  0
 25 28  1  0  0  0  0
 29 56  1  0  0  0  0
 30 31  1  0  0  0  0
 30 57  1  0  0  0  0
 31 32  2  0  0  0  0
 31 58  1  0  0  0  0
 32 33  1  0  0  0  0
 32 59  1  0  0  0  0
 33 34  1  0  0  0  0
 34 35  2  0  0  0  0
 36 37  2  0  0  0  0
 37 38  1  0  0  0  0
 37 60  1  0  0  0  0
 38 39  1  0  0  0  0
 39 40  1  0  0  0  0
 40 61  1  0  0  0  0
 40 62  1  0  0  0  0
 40 63  1  0  0  0  0
M  END
$$$$
