CHEMBL270978
 OpenBabel04072215363D

 55 59  0  0  0  0  0  0  0  0999 V2000
    4.2679   -1.3370    0.5172 C   0  0  0  0  0  0  0  0  0  0  0  0
    3.8883    0.0387    0.5790 O   0  0  0  0  0  0  0  0  0  0  0  0
    4.1301    0.7250   -0.5820 C   0  0  0  0  0  0  0  0  0  0  0  0
    5.2857    0.5055   -1.3417 C   0  0  0  0  0  0  0  0  0  0  0  0
    5.5149    1.1365   -2.5548 C   0  0  0  0  0  0  0  0  0  0  0  0
    6.6567    0.8319   -3.1897 N   0  0  0  0  0  0  0  0  0  0  0  0
    6.9124    1.4233   -4.3712 C   0  0  0  0  0  0  0  0  0  0  0  0
    6.0863    2.3646   -4.9428 C   0  0  0  0  0  0  0  0  0  0  0  0
    4.9162    2.7119   -4.2693 C   0  0  0  0  0  0  0  0  0  0  0  0
    4.2163    3.7210   -4.9191 O   0  0  0  0  0  0  0  0  0  0  0  0
    3.4710    4.6218   -4.2075 C   0  0  0  0  0  0  0  0  0  0  0  0
    3.8121    5.0938   -2.9471 C   0  0  0  0  0  0  0  0  0  0  0  0
    2.8293    5.7007   -2.1604 C   0  0  0  0  0  0  0  0  0  0  0  0
    1.5404    6.0185   -2.6672 C   0  0  0  0  0  0  0  0  0  0  0  0
    0.4578    6.5866   -1.9314 C   0  0  0  0  0  0  0  0  0  0  0  0
    0.4352    6.8239   -0.4545 C   0  0  0  0  0  0  0  0  0  0  0  0
   -0.6133    6.5637    0.1303 O   0  0  0  0  0  0  0  0  0  0  0  0
    1.5721    7.3359    0.1388 N   0  0  0  0  0  0  0  0  0  0  0  0
    1.6486    7.5172    1.5030 C   0  0  0  0  0  0  0  0  0  0  0  0
    2.7099    7.8492    2.3103 C   0  0  0  0  0  0  0  0  0  0  0  0
    2.1631    7.8790    3.6165 C   0  0  0  0  0  0  0  0  0  0  0  0
    2.8360    8.1426    4.9066 C   0  0  0  0  0  0  0  0  0  0  0  0
    0.8551    7.6063    3.6023 N   0  0  0  0  0  0  0  0  0  0  0  0
    0.5399    7.3662    2.2784 O   0  0  0  0  0  0  0  0  0  0  0  0
   -0.7706    6.8534   -2.5706 C   0  0  0  0  0  0  0  0  0  0  0  0
   -0.9567    6.5762   -3.9183 C   0  0  0  0  0  0  0  0  0  0  0  0
    0.0733    5.9927   -4.6413 C   0  0  0  0  0  0  0  0  0  0  0  0
    1.2999    5.6911   -4.0350 C   0  0  0  0  0  0  0  0  0  0  0  0
    2.2589    4.9921   -4.7816 C   0  0  0  0  0  0  0  0  0  0  0  0
    4.5623    2.0421   -3.0615 C   0  0  0  0  0  0  0  0  0  0  0  0
    3.3681    2.2068   -2.3004 C   0  0  0  0  0  0  0  0  0  0  0  0
    3.1937    1.6468   -1.0314 C   0  0  0  0  0  0  0  0  0  0  0  0
    2.0587    2.0518   -0.3832 O   0  0  0  0  0  0  0  0  0  0  0  0
    2.1688    2.2121    1.0312 C   0  0  0  0  0  0  0  0  0  0  0  0
    3.6758   -1.8860    1.2538 H   0  0  0  0  0  0  0  0  0  0  0  0
    5.3252   -1.4449    0.7797 H   0  0  0  0  0  0  0  0  0  0  0  0
    4.0661   -1.7786   -0.4672 H   0  0  0  0  0  0  0  0  0  0  0  0
    6.0523   -0.1774   -0.9869 H   0  0  0  0  0  0  0  0  0  0  0  0
    7.8322    1.1132   -4.8566 H   0  0  0  0  0  0  0  0  0  0  0  0
    6.3511    2.8269   -5.8877 H   0  0  0  0  0  0  0  0  0  0  0  0
    4.7764    4.8578   -2.5037 H   0  0  0  0  0  0  0  0  0  0  0  0
    3.0835    5.8340   -1.1158 H   0  0  0  0  0  0  0  0  0  0  0  0
    2.3818    7.5722   -0.4134 H   0  0  0  0  0  0  0  0  0  0  0  0
    3.7342    8.0158    2.0166 H   0  0  0  0  0  0  0  0  0  0  0  0
    3.8581    8.5018    4.7561 H   0  0  0  0  0  0  0  0  0  0  0  0
    2.8795    7.2258    5.5041 H   0  0  0  0  0  0  0  0  0  0  0  0
    2.2908    8.8990    5.4810 H   0  0  0  0  0  0  0  0  0  0  0  0
   -1.6045    7.2618   -2.0004 H   0  0  0  0  0  0  0  0  0  0  0  0
   -1.9159    6.7761   -4.3902 H   0  0  0  0  0  0  0  0  0  0  0  0
   -0.1057    5.7405   -5.6861 H   0  0  0  0  0  0  0  0  0  0  0  0
    2.0340    4.6619   -5.7928 H   0  0  0  0  0  0  0  0  0  0  0  0
    2.5502    2.8150   -2.6754 H   0  0  0  0  0  0  0  0  0  0  0  0
    1.5026    3.0293    1.3303 H   0  0  0  0  0  0  0  0  0  0  0  0
    3.1783    2.4841    1.3614 H   0  0  0  0  0  0  0  0  0  0  0  0
    1.8247    1.3036    1.5332 H   0  0  0  0  0  0  0  0  0  0  0  0
  1  2  1  0  0  0  0
  1 35  1  0  0  0  0
  1 36  1  0  0  0  0
  1 37  1  0  0  0  0
  2  3  1  0  0  0  0
  3  4  1  0  0  0  0
  3 32  2  0  0  0  0
  4  5  2  0  0  0  0
  4 38  1  0  0  0  0
  5  6  1  0  0  0  0
  5 30  1  0  0  0  0
  6  7  2  0  0  0  0
  7  8  1  0  0  0  0
  7 39  1  0  0  0  0
  8  9  2  0  0  0  0
  8 40  1  0  0  0  0
  9 10  1  0  0  0  0
  9 30  1  0  0  0  0
 10 11  1  0  0  0  0
 11 12  1  0  0  0  0
 11 29  2  0  0  0  0
 12 13  2  0  0  0  0
 12 41  1  0  0  0  0
 13 14  1  0  0  0  0
 13 42  1  0  0  0  0
 14 15  1  0  0  0  0
 14 28  2  0  0  0  0
 15 16  1  0  0  0  0
 15 25  2  0  0  0  0
 16 17  2  0  0  0  0
 16 18  1  0  0  0  0
 18 19  1  0  0  0  0
 18 43  1  0  0  0  0
 19 20  2  0  0  0  0
 19 24  1  0  0  0  0
 20 21  1  0  0  0  0
 20 44  1  0  0  0  0
 21 22  1  0  0  0  0
 21 23  2  0  0  0  0
 22 45  1  0  0  0  0
 22 46  1  0  0  0  0
 22 47  1  0  0  0  0
 23 24  1  0  0  0  0
 25 26  1  0  0  0  0
 25 48  1  0  0  0  0
 26 27  2  0  0  0  0
 26 49  1  0  0  0  0
 27 28  1  0  0  0  0
 27 50  1  0  0  0  0
 28 29  1  0  0  0  0
 29 51  1  0  0  0  0
 30 31  2  0  0  0  0
 31 32  1  0  0  0  0
 31 52  1  0  0  0  0
 32 33  1  0  0  0  0
 33 34  1  0  0  0  0
 34 53  1  0  0  0  0
 34 54  1  0  0  0  0
 34 55  1  0  0  0  0
M  END
$$$$
