CHEMBL3964043
 OpenBabel04072215373D

 61 65  0  0  0  0  0  0  0  0999 V2000
    1.5198    0.6027   -0.4985 C   0  0  0  0  0  0  0  0  0  0  0  0
    2.3733   -0.3395    0.1493 O   0  0  0  0  0  0  0  0  0  0  0  0
    3.1221   -1.1483   -0.6673 C   0  0  0  0  0  0  0  0  0  0  0  0
    2.8677   -1.3837   -2.0078 C   0  0  0  0  0  0  0  0  0  0  0  0
    3.6895   -2.2579   -2.7202 C   0  0  0  0  0  0  0  0  0  0  0  0
    3.4878   -2.6101   -4.0317 O   0  0  0  0  0  0  0  0  0  0  0  0
    2.4114   -1.9641   -4.7093 C   0  0  0  0  0  0  0  0  0  0  0  0
    4.8218   -2.8346   -2.1031 C   0  0  0  0  0  0  0  0  0  0  0  0
    5.1742   -2.5405   -0.7770 C   0  0  0  0  0  0  0  0  0  0  0  0
    6.3870   -3.0283   -0.1812 N   0  0  0  0  0  0  0  0  0  0  0  0
    6.7411   -2.3648    1.1421 C   0  0  0  0  0  0  0  0  0  0  0  0
    7.8571   -2.8908    1.9829 C   0  0  0  0  0  0  0  0  0  0  0  0
    8.7756   -3.2877    2.6589 C   0  0  0  0  0  0  0  0  0  0  0  0
    9.9418   -3.7896    3.3373 C   0  0  0  0  0  0  0  0  0  0  0  0
   11.1324   -3.8840    2.6569 C   0  0  0  0  0  0  0  0  0  0  0  0
   12.1761   -4.4105    3.3655 C   0  0  0  0  0  0  0  0  0  0  0  0
   12.0665   -4.7862    4.6468 N   0  0  0  0  0  0  0  0  0  0  0  0
   10.8739   -4.6251    5.2302 C   0  0  0  0  0  0  0  0  0  0  0  0
   10.7864   -5.0230    6.5435 N   0  0  0  0  0  0  0  0  0  0  0  0
    9.7864   -4.1613    4.6125 N   0  0  0  0  0  0  0  0  0  0  0  0
    7.5113   -3.6721   -0.7951 C   0  0  0  0  0  0  0  0  0  0  0  0
    7.9764   -4.8017   -0.1315 C   0  0  0  0  0  0  0  0  0  0  0  0
    9.3132   -5.1401   -0.2156 C   0  0  0  0  0  0  0  0  0  0  0  0
   10.1656   -4.4917   -1.0737 C   0  0  0  0  0  0  0  0  0  0  0  0
   11.4594   -4.7534   -0.8644 N   0  0  0  0  0  0  0  0  0  0  0  0
   12.3134   -4.3085   -1.7910 C   0  0  0  0  0  0  0  0  0  0  0  0
   11.8841   -3.6932   -2.9478 C   0  0  0  0  0  0  0  0  0  0  0  0
   12.8654   -3.6232   -4.0241 C   0  0  0  0  0  0  0  0  0  0  0  0
   13.0859   -4.5079   -5.1152 C   0  0  0  0  0  0  0  0  0  0  0  0
   14.2340   -4.2633   -5.7615 N   0  0  0  0  0  0  0  0  0  0  0  0
   14.7565   -3.2281   -5.0833 N   0  0  0  0  0  0  0  0  0  0  0  0
   15.8365   -2.4494   -5.6422 C   0  0  0  0  0  0  0  0  0  0  0  0
   14.0683   -2.9410   -3.9366 C   0  0  0  0  0  0  0  0  0  0  0  0
   10.5744   -3.2920   -3.0953 N   0  0  0  0  0  0  0  0  0  0  0  0
    9.6760   -3.6309   -2.0810 C   0  0  0  0  0  0  0  0  0  0  0  0
    8.3136   -3.1854   -1.8677 C   0  0  0  0  0  0  0  0  0  0  0  0
    4.2264   -1.7653   -0.0601 C   0  0  0  0  0  0  0  0  0  0  0  0
    1.1593    1.3107    0.2547 H   0  0  0  0  0  0  0  0  0  0  0  0
    0.6462    0.1044   -0.9316 H   0  0  0  0  0  0  0  0  0  0  0  0
    2.0589    1.1795   -1.2589 H   0  0  0  0  0  0  0  0  0  0  0  0
    2.0207   -0.9076   -2.4824 H   0  0  0  0  0  0  0  0  0  0  0  0
    2.3774   -2.3441   -5.7341 H   0  0  0  0  0  0  0  0  0  0  0  0
    2.5734   -0.8812   -4.7609 H   0  0  0  0  0  0  0  0  0  0  0  0
    1.4469   -2.1933   -4.2413 H   0  0  0  0  0  0  0  0  0  0  0  0
    5.4264   -3.5215   -2.6886 H   0  0  0  0  0  0  0  0  0  0  0  0
    5.8791   -2.4209    1.8140 H   0  0  0  0  0  0  0  0  0  0  0  0
    6.9511   -1.3078    0.9344 H   0  0  0  0  0  0  0  0  0  0  0  0
   11.2387   -3.5787    1.6279 H   0  0  0  0  0  0  0  0  0  0  0  0
   13.1544   -4.5462    2.9147 H   0  0  0  0  0  0  0  0  0  0  0  0
   11.5349   -5.6842    6.7479 H   0  0  0  0  0  0  0  0  0  0  0  0
    9.8493   -5.3136    6.7659 H   0  0  0  0  0  0  0  0  0  0  0  0
    7.3523   -5.2869    0.6159 H   0  0  0  0  0  0  0  0  0  0  0  0
    9.7172   -5.8730    0.4755 H   0  0  0  0  0  0  0  0  0  0  0  0
   13.3590   -4.5233   -1.6019 H   0  0  0  0  0  0  0  0  0  0  0  0
   12.4838   -5.3454   -5.4464 H   0  0  0  0  0  0  0  0  0  0  0  0
   16.1183   -2.8475   -6.6205 H   0  0  0  0  0  0  0  0  0  0  0  0
   16.6905   -2.4669   -4.9615 H   0  0  0  0  0  0  0  0  0  0  0  0
   15.4649   -1.4272   -5.7592 H   0  0  0  0  0  0  0  0  0  0  0  0
   14.4720   -2.2636   -3.1978 H   0  0  0  0  0  0  0  0  0  0  0  0
    7.9221   -2.4029   -2.5161 H   0  0  0  0  0  0  0  0  0  0  0  0
    4.3067   -1.5954    1.0085 H   0  0  0  0  0  0  0  0  0  0  0  0
  1  2  1  0  0  0  0
  1 38  1  0  0  0  0
  1 39  1  0  0  0  0
  1 40  1  0  0  0  0
  2  3  1  0  0  0  0
  3  4  1  0  0  0  0
  3 37  2  0  0  0  0
  4  5  2  0  0  0  0
  4 41  1  0  0  0  0
  5  6  1  0  0  0  0
  5  8  1  0  0  0  0
  6  7  1  0  0  0  0
  7 42  1  0  0  0  0
  7 43  1  0  0  0  0
  7 44  1  0  0  0  0
  8  9  2  0  0  0  0
  8 45  1  0  0  0  0
  9 10  1  0  0  0  0
  9 37  1  0  0  0  0
 10 11  1  0  0  0  0
 10 21  1  0  0  0  0
 11 12  1  0  0  0  0
 11 46  1  0  0  0  0
 11 47  1  0  0  0  0
 12 13  3  0  0  0  0
 13 14  1  0  0  0  0
 14 15  1  0  0  0  0
 14 20  2  0  0  0  0
 15 16  2  0  0  0  0
 15 48  1  0  0  0  0
 16 17  1  0  0  0  0
 16 49  1  0  0  0  0
 17 18  2  0  0  0  0
 18 19  1  0  0  0  0
 18 20  1  0  0  0  0
 19 50  1  0  0  0  0
 19 51  1  0  0  0  0
 21 22  1  0  0  0  0
 21 36  2  0  0  0  0
 22 23  2  0  0  0  0
 22 52  1  0  0  0  0
 23 24  1  0  0  0  0
 23 53  1  0  0  0  0
 24 25  1  0  0  0  0
 24 35  2  0  0  0  0
 25 26  2  0  0  0  0
 26 27  1  0  0  0  0
 26 54  1  0  0  0  0
 27 28  1  0  0  0  0
 27 34  2  0  0  0  0
 28 29  1  0  0  0  0
 28 33  2  0  0  0  0
 29 30  2  0  0  0  0
 29 55  1  0  0  0  0
 30 31  1  0  0  0  0
 31 32  1  0  0  0  0
 31 33  1  0  0  0  0
 32 56  1  0  0  0  0
 32 57  1  0  0  0  0
 32 58  1  0  0  0  0
 33 59  1  0  0  0  0
 34 35  1  0  0  0  0
 35 36  1  0  0  0  0
 36 60  1  0  0  0  0
 37 61  1  0  0  0  0
M  END
$$$$
