CHEMBL2018752
 OpenBabel04072215363D

 47 49  0  0  0  0  0  0  0  0999 V2000
    2.4040   -3.3216    0.5484 C   0  0  0  0  0  0  0  0  0  0  0  0
    2.0593   -2.9808    1.9892 C   0  0  0  0  0  0  0  0  0  0  0  0
    2.8520   -1.8532    2.3955 O   0  0  0  0  0  0  0  0  0  0  0  0
    4.0781   -2.2024    2.8719 C   0  0  0  0  0  0  0  0  0  0  0  0
    4.3841   -3.3484    3.1630 O   0  0  0  0  0  0  0  0  0  0  0  0
    4.8849   -1.1001    2.9208 N   0  0  0  0  0  0  0  0  0  0  0  0
    6.2803   -1.1087    3.1305 C   0  0  0  0  0  0  0  0  0  0  0  0
    7.0236   -2.2920    3.0991 C   0  0  0  0  0  0  0  0  0  0  0  0
    8.4070   -2.2817    3.2756 C   0  0  0  0  0  0  0  0  0  0  0  0
    9.0960   -1.0821    3.4545 C   0  0  0  0  0  0  0  0  0  0  0  0
   10.4921   -1.1277    3.6404 N   0  0  0  0  0  0  0  0  0  0  0  0
   11.4319   -0.0961    3.3838 C   0  0  0  0  0  0  0  0  0  0  0  0
   11.0265    0.9944    2.7184 N   0  0  0  0  0  0  0  0  0  0  0  0
   11.9170    1.9716    2.5551 C   0  0  0  0  0  0  0  0  0  0  0  0
   13.1727    1.9651    3.0029 N   0  0  0  0  0  0  0  0  0  0  0  0
   13.5694    0.8656    3.6578 C   0  0  0  0  0  0  0  0  0  0  0  0
   14.8597    0.8082    4.1542 C   0  0  0  0  0  0  0  0  0  0  0  0
   15.4167   -0.3025    4.8440 C   0  0  0  0  0  0  0  0  0  0  0  0
   16.6968    0.0327    5.1481 O   0  0  0  0  0  0  0  0  0  0  0  0
   17.5907   -0.7438    5.8970 C   0  0  0  0  0  0  0  0  0  0  0  0
   14.6110   -1.4228    5.0304 C   0  0  0  0  0  0  0  0  0  0  0  0
   14.7650   -2.6624    5.5588 O   0  0  0  0  0  0  0  0  0  0  0  0
   15.8735   -3.1438    6.2711 C   0  0  0  0  0  0  0  0  0  0  0  0
   13.2814   -1.3508    4.5476 C   0  0  0  0  0  0  0  0  0  0  0  0
   12.7455   -0.2279    3.8694 C   0  0  0  0  0  0  0  0  0  0  0  0
    8.3484    0.1009    3.5312 C   0  0  0  0  0  0  0  0  0  0  0  0
    6.9623    0.0950    3.3423 C   0  0  0  0  0  0  0  0  0  0  0  0
    6.1212    1.6068    3.3983 Cl  0  0  0  0  0  0  0  0  0  0  0  0
    1.8542   -4.2028    0.2089 H   0  0  0  0  0  0  0  0  0  0  0  0
    3.4772   -3.5126    0.4321 H   0  0  0  0  0  0  0  0  0  0  0  0
    2.1644   -2.4777   -0.1068 H   0  0  0  0  0  0  0  0  0  0  0  0
    2.2108   -3.8480    2.6426 H   0  0  0  0  0  0  0  0  0  0  0  0
    1.0056   -2.7013    2.0741 H   0  0  0  0  0  0  0  0  0  0  0  0
    4.4304   -0.2064    2.7822 H   0  0  0  0  0  0  0  0  0  0  0  0
    6.5647   -3.2573    2.9106 H   0  0  0  0  0  0  0  0  0  0  0  0
    8.9355   -3.2316    3.2509 H   0  0  0  0  0  0  0  0  0  0  0  0
   10.8839   -2.0282    3.3865 H   0  0  0  0  0  0  0  0  0  0  0  0
   11.5833    2.8535    2.0212 H   0  0  0  0  0  0  0  0  0  0  0  0
   15.4876    1.6871    3.9958 H   0  0  0  0  0  0  0  0  0  0  0  0
   18.5165   -0.1676    6.0002 H   0  0  0  0  0  0  0  0  0  0  0  0
   17.8605   -1.6505    5.3582 H   0  0  0  0  0  0  0  0  0  0  0  0
   17.2237   -0.9114    6.9092 H   0  0  0  0  0  0  0  0  0  0  0  0
   15.6137   -4.1449    6.6334 H   0  0  0  0  0  0  0  0  0  0  0  0
   16.0730   -2.5460    7.1596 H   0  0  0  0  0  0  0  0  0  0  0  0
   16.7349   -3.2798    5.6177 H   0  0  0  0  0  0  0  0  0  0  0  0
   12.6437   -2.2207    4.7080 H   0  0  0  0  0  0  0  0  0  0  0  0
    8.8434    1.0457    3.7363 H   0  0  0  0  0  0  0  0  0  0  0  0
  1  2  1  0  0  0  0
  1 29  1  0  0  0  0
  1 30  1  0  0  0  0
  1 31  1  0  0  0  0
  2  3  1  0  0  0  0
  2 32  1  0  0  0  0
  2 33  1  0  0  0  0
  3  4  1  0  0  0  0
  4  5  2  0  0  0  0
  4  6  1  0  0  0  0
  6  7  1  0  0  0  0
  6 34  1  0  0  0  0
  7  8  1  0  0  0  0
  7 27  2  0  0  0  0
  8  9  2  0  0  0  0
  8 35  1  0  0  0  0
  9 10  1  0  0  0  0
  9 36  1  0  0  0  0
 10 11  1  0  0  0  0
 10 26  2  0  0  0  0
 11 12  1  0  0  0  0
 11 37  1  0  0  0  0
 12 13  1  0  0  0  0
 12 25  2  0  0  0  0
 13 14  2  0  0  0  0
 14 15  1  0  0  0  0
 14 38  1  0  0  0  0
 15 16  2  0  0  0  0
 16 17  1  0  0  0  0
 16 25  1  0  0  0  0
 17 18  2  0  0  0  0
 17 39  1  0  0  0  0
 18 19  1  0  0  0  0
 18 21  1  0  0  0  0
 19 20  1  0  0  0  0
 20 40  1  0  0  0  0
 20 41  1  0  0  0  0
 20 42  1  0  0  0  0
 21 22  1  0  0  0  0
 21 24  2  0  0  0  0
 22 23  1  0  0  0  0
 23 43  1  0  0  0  0
 23 44  1  0  0  0  0
 23 45  1  0  0  0  0
 24 25  1  0  0  0  0
 24 46  1  0  0  0  0
 26 27  1  0  0  0  0
 26 47  1  0  0  0  0
 27 28  1  0  0  0  0
M  END
$$$$
