CHEMBL4173279
 OpenBabel04072215383D

 40 43  0  0  0  0  0  0  0  0999 V2000
    3.9355    2.3455    4.3748 N   0  0  0  0  0  0  0  0  0  0  0  0
    4.9511    1.9698    3.4719 N   0  0  0  0  0  0  0  0  0  0  0  0
    5.7047    2.9558    2.8378 C   0  0  0  0  0  0  0  0  0  0  0  0
    5.4727    4.1595    2.9463 O   0  0  0  0  0  0  0  0  0  0  0  0
    6.8129    2.4061    1.9621 C   0  0  0  0  0  0  0  0  0  0  0  0
    6.2111    2.3120    0.2487 S   0  0  0  0  0  0  0  0  0  0  0  0
    7.6712    1.7632   -0.5300 C   0  0  0  0  0  0  0  0  0  0  0  0
    8.5069    0.9356    0.0550 N   0  0  0  0  0  0  0  0  0  0  0  0
    9.6411    0.7252   -0.7010 N   0  0  0  0  0  0  0  0  0  0  0  0
    9.6226    1.3993   -1.8340 C   0  0  0  0  0  0  0  0  0  0  0  0
   10.7675    1.5149   -2.7839 C   0  0  0  0  0  0  0  0  0  0  0  0
   10.7666    0.4540   -3.7754 N   0  0  0  0  0  0  0  0  0  0  0  0
   11.3698   -0.7831   -3.6747 C   0  0  0  0  0  0  0  0  0  0  0  0
   12.0911   -1.2955   -2.5435 C   0  0  0  0  0  0  0  0  0  0  0  0
   12.7063   -2.5324   -2.4174 C   0  0  0  0  0  0  0  0  0  0  0  0
   13.2716   -2.5931   -1.1204 C   0  0  0  0  0  0  0  0  0  0  0  0
   12.9765   -1.3930   -0.5264 C   0  0  0  0  0  0  0  0  0  0  0  0
   12.2809   -0.6038   -1.3764 O   0  0  0  0  0  0  0  0  0  0  0  0
   11.2089   -1.4721   -4.7911 N   0  0  0  0  0  0  0  0  0  0  0  0
   10.5068   -0.6593   -5.6405 C   0  0  0  0  0  0  0  0  0  0  0  0
   10.0792   -0.9029   -6.9547 C   0  0  0  0  0  0  0  0  0  0  0  0
    9.3824    0.1011   -7.6361 C   0  0  0  0  0  0  0  0  0  0  0  0
    9.1224    1.3267   -7.0240 C   0  0  0  0  0  0  0  0  0  0  0  0
    9.5410    1.5876   -5.7137 C   0  0  0  0  0  0  0  0  0  0  0  0
   10.2264    0.5653   -5.0433 C   0  0  0  0  0  0  0  0  0  0  0  0
    8.1655    2.2874   -2.0821 S   0  0  0  0  0  0  0  0  0  0  0  0
    3.0959    1.7975    4.1765 H   0  0  0  0  0  0  0  0  0  0  0  0
    3.6794    3.3185    4.1549 H   0  0  0  0  0  0  0  0  0  0  0  0
    5.2567    0.9986    3.4528 H   0  0  0  0  0  0  0  0  0  0  0  0
    7.1173    1.4157    2.3161 H   0  0  0  0  0  0  0  0  0  0  0  0
    7.6790    3.0732    2.0366 H   0  0  0  0  0  0  0  0  0  0  0  0
   11.7227    1.5073   -2.2535 H   0  0  0  0  0  0  0  0  0  0  0  0
   10.7436    2.4734   -3.3149 H   0  0  0  0  0  0  0  0  0  0  0  0
   12.7310   -3.2968   -3.1823 H   0  0  0  0  0  0  0  0  0  0  0  0
   13.8236   -3.4109   -0.6788 H   0  0  0  0  0  0  0  0  0  0  0  0
   13.1807   -0.9695    0.4483 H   0  0  0  0  0  0  0  0  0  0  0  0
   10.2905   -1.8561   -7.4259 H   0  0  0  0  0  0  0  0  0  0  0  0
    9.0419   -0.0783   -8.6532 H   0  0  0  0  0  0  0  0  0  0  0  0
    8.5827    2.0943   -7.5752 H   0  0  0  0  0  0  0  0  0  0  0  0
    9.3353    2.5486   -5.2544 H   0  0  0  0  0  0  0  0  0  0  0  0
  1  2  1  0  0  0  0
  1 27  1  0  0  0  0
  1 28  1  0  0  0  0
  2  3  1  0  0  0  0
  2 29  1  0  0  0  0
  3  4  2  0  0  0  0
  3  5  1  0  0  0  0
  5  6  1  0  0  0  0
  5 30  1  0  0  0  0
  5 31  1  0  0  0  0
  6  7  1  0  0  0  0
  7  8  2  0  0  0  0
  7 26  1  0  0  0  0
  8  9  1  0  0  0  0
  9 10  2  0  0  0  0
 10 11  1  0  0  0  0
 10 26  1  0  0  0  0
 11 12  1  0  0  0  0
 11 32  1  0  0  0  0
 11 33  1  0  0  0  0
 12 13  1  0  0  0  0
 12 25  1  0  0  0  0
 13 14  1  0  0  0  0
 13 19  2  0  0  0  0
 14 15  2  0  0  0  0
 14 18  1  0  0  0  0
 15 16  1  0  0  0  0
 15 34  1  0  0  0  0
 16 17  2  0  0  0  0
 16 35  1  0  0  0  0
 17 18  1  0  0  0  0
 17 36  1  0  0  0  0
 19 20  1  0  0  0  0
 20 21  1  0  0  0  0
 20 25  2  0  0  0  0
 21 22  2  0  0  0  0
 21 37  1  0  0  0  0
 22 23  1  0  0  0  0
 22 38  1  0  0  0  0
 23 24  2  0  0  0  0
 23 39  1  0  0  0  0
 24 25  1  0  0  0  0
 24 40  1  0  0  0  0
M  END
$$$$
