CHEMBL4635544
 OpenBabel04072215383D

101106  0  0  0  0  0  0  0  0999 V2000
    4.0253    3.6296    7.5075 C   0  0  0  0  0  0  0  0  0  0  0  0
    4.6940    2.4107    6.8934 C   0  0  0  0  0  0  0  0  0  0  0  0
    4.0682    1.1640    7.3787 N   0  0  0  0  0  0  0  0  0  0  0  0
    4.7609   -0.2878    6.7706 S   0  0  0  0  0  0  0  0  0  0  0  0
    6.1270    0.0083    6.4081 O   0  0  0  0  0  0  0  0  0  0  0  0
    4.4180   -1.3324    7.7235 O   0  0  0  0  0  0  0  0  0  0  0  0
    3.7863   -0.5880    5.3101 C   0  0  0  0  0  0  0  0  0  0  0  0
    2.4006   -0.7529    5.5621 C   0  0  0  0  0  0  0  0  0  0  0  0
    1.4924   -0.9425    4.5247 C   0  0  0  0  0  0  0  0  0  0  0  0
    1.9457   -0.9209    3.2194 C   0  0  0  0  0  0  0  0  0  0  0  0
    3.3099   -0.7754    2.9676 C   0  0  0  0  0  0  0  0  0  0  0  0
    4.2820   -0.7035    4.0001 C   0  0  0  0  0  0  0  0  0  0  0  0
    5.6703   -0.6799    3.6025 N   0  0  0  0  0  0  0  0  0  0  0  0
    6.0946   -1.4557    2.4574 C   0  0  0  0  0  0  0  0  0  0  0  0
    5.4024   -2.5872    2.2083 N   0  0  0  0  0  0  0  0  0  0  0  0
    5.4886   -3.1283    0.9900 C   0  0  0  0  0  0  0  0  0  0  0  0
    4.5413   -4.0746    0.6703 N   0  0  0  0  0  0  0  0  0  0  0  0
    3.9944   -4.3924   -0.5732 C   0  0  0  0  0  0  0  0  0  0  0  0
    3.9587   -3.5426   -1.6786 C   0  0  0  0  0  0  0  0  0  0  0  0
    3.4436   -3.9925   -2.9061 C   0  0  0  0  0  0  0  0  0  0  0  0
    3.0107   -5.3215   -3.0858 C   0  0  0  0  0  0  0  0  0  0  0  0
    2.6380   -5.7155   -4.3864 N   0  0  0  0  0  0  0  0  0  0  0  0
    2.8949   -7.1111   -4.7368 C   0  0  0  0  0  0  0  0  0  0  0  0
    3.0170   -7.2067   -6.2494 C   0  0  0  0  0  0  0  0  0  0  0  0
    1.7544   -6.7268   -7.0200 C   0  0  0  0  0  0  0  0  0  0  0  0
    0.7354   -7.8071   -7.1776 N   0  0  0  0  0  0  0  0  0  0  0  0
    1.2289   -8.9587   -7.9915 C   0  0  0  0  0  0  0  0  0  0  0  0
    1.3159   -8.7192   -9.5187 C   0  0  0  0  0  0  0  0  0  0  0  0
    0.0473   -8.2949  -10.1266 N   0  0  0  0  0  0  0  0  0  0  0  0
    0.2815   -7.8842  -11.5158 C   0  0  0  0  0  0  0  0  0  0  0  0
   -0.5620   -7.1988   -9.3526 C   0  0  0  0  0  0  0  0  0  0  0  0
   -0.5440   -7.3897   -7.8077 C   0  0  0  0  0  0  0  0  0  0  0  0
    1.2765   -5.3801   -6.3816 C   0  0  0  0  0  0  0  0  0  0  0  0
    1.3081   -5.2967   -4.8445 C   0  0  0  0  0  0  0  0  0  0  0  0
    3.0754   -6.1756   -1.9576 C   0  0  0  0  0  0  0  0  0  0  0  0
    2.7271   -7.5002   -2.0866 O   0  0  0  0  0  0  0  0  0  0  0  0
    2.3465   -8.1582   -0.8843 C   0  0  0  0  0  0  0  0  0  0  0  0
    3.5484   -5.6927   -0.7341 C   0  0  0  0  0  0  0  0  0  0  0  0
    6.3694   -2.7593    0.0689 N   0  0  0  0  0  0  0  0  0  0  0  0
    7.1545   -1.7284    0.3812 C   0  0  0  0  0  0  0  0  0  0  0  0
    7.0458   -0.9757    1.5374 C   0  0  0  0  0  0  0  0  0  0  0  0
    7.8016    0.1846    1.7285 N   0  0  0  0  0  0  0  0  0  0  0  0
    8.3570    0.8975    0.6536 C   0  0  0  0  0  0  0  0  0  0  0  0
    8.1688    0.6534   -0.5320 O   0  0  0  0  0  0  0  0  0  0  0  0
    9.1630    2.0806    1.0206 C   0  0  0  0  0  0  0  0  0  0  0  0
    9.2463    2.3115    2.3289 N   0  0  0  0  0  0  0  0  0  0  0  0
    9.9054    3.4196    2.6697 C   0  0  0  0  0  0  0  0  0  0  0  0
    9.9934    3.7034    4.0146 O   0  0  0  0  0  0  0  0  0  0  0  0
    9.3580    2.6942    4.8169 C   0  0  0  0  0  0  0  0  0  0  0  0
   10.4656    4.2852    1.7551 C   0  0  0  0  0  0  0  0  0  0  0  0
   10.3075    3.9398    0.4296 C   0  0  0  0  0  0  0  0  0  0  0  0
   10.8384    4.7818   -0.5305 O   0  0  0  0  0  0  0  0  0  0  0  0
   10.5912    4.3326   -1.8694 C   0  0  0  0  0  0  0  0  0  0  0  0
    9.6596    2.8395    0.0400 N   0  0  0  0  0  0  0  0  0  0  0  0
    4.5306    4.5398    7.1640 H   0  0  0  0  0  0  0  0  0  0  0  0
    4.0774    3.6100    8.6019 H   0  0  0  0  0  0  0  0  0  0  0  0
    2.9716    3.6983    7.2206 H   0  0  0  0  0  0  0  0  0  0  0  0
    5.7469    2.4162    7.1897 H   0  0  0  0  0  0  0  0  0  0  0  0
    4.6183    2.4666    5.8032 H   0  0  0  0  0  0  0  0  0  0  0  0
    3.0507    1.1645    7.2996 H   0  0  0  0  0  0  0  0  0  0  0  0
    2.0239   -0.7659    6.5835 H   0  0  0  0  0  0  0  0  0  0  0  0
    0.4388   -1.1052    4.7359 H   0  0  0  0  0  0  0  0  0  0  0  0
    1.2562   -1.0511    2.3893 H   0  0  0  0  0  0  0  0  0  0  0  0
    3.6172   -0.7815    1.9220 H   0  0  0  0  0  0  0  0  0  0  0  0
    5.9089    0.2882    3.4102 H   0  0  0  0  0  0  0  0  0  0  0  0
    4.0277   -4.3698    1.4866 H   0  0  0  0  0  0  0  0  0  0  0  0
    4.3318   -2.5247   -1.6073 H   0  0  0  0  0  0  0  0  0  0  0  0
    3.4474   -3.3057   -3.7517 H   0  0  0  0  0  0  0  0  0  0  0  0
    2.0887   -7.7627   -4.3778 H   0  0  0  0  0  0  0  0  0  0  0  0
    3.8470   -7.4485   -4.3091 H   0  0  0  0  0  0  0  0  0  0  0  0
    3.3067   -8.2324   -6.4834 H   0  0  0  0  0  0  0  0  0  0  0  0
    3.8644   -6.5869   -6.5681 H   0  0  0  0  0  0  0  0  0  0  0  0
    2.0900   -6.4655   -8.0314 H   0  0  0  0  0  0  0  0  0  0  0  0
    0.5593   -9.8103   -7.8093 H   0  0  0  0  0  0  0  0  0  0  0  0
    2.2063   -9.3139   -7.6587 H   0  0  0  0  0  0  0  0  0  0  0  0
    1.6272   -9.6595   -9.9924 H   0  0  0  0  0  0  0  0  0  0  0  0
    2.1020   -7.9832   -9.7249 H   0  0  0  0  0  0  0  0  0  0  0  0
    0.7694   -8.6860  -12.0830 H   0  0  0  0  0  0  0  0  0  0  0  0
    0.9256   -6.9980  -11.5734 H   0  0  0  0  0  0  0  0  0  0  0  0
   -0.6593   -7.6581  -12.0290 H   0  0  0  0  0  0  0  0  0  0  0  0
   -1.6122   -7.1114   -9.6633 H   0  0  0  0  0  0  0  0  0  0  0  0
   -0.0757   -6.2455   -9.5910 H   0  0  0  0  0  0  0  0  0  0  0  0
   -1.2840   -8.1633   -7.5610 H   0  0  0  0  0  0  0  0  0  0  0  0
   -0.9488   -6.4882   -7.3428 H   0  0  0  0  0  0  0  0  0  0  0  0
    0.2899   -5.0737   -6.7367 H   0  0  0  0  0  0  0  0  0  0  0  0
    1.9542   -4.6014   -6.7582 H   0  0  0  0  0  0  0  0  0  0  0  0
    0.5283   -5.9302   -4.4025 H   0  0  0  0  0  0  0  0  0  0  0  0
    1.0892   -4.2613   -4.5508 H   0  0  0  0  0  0  0  0  0  0  0  0
    2.0090   -9.1655   -1.1384 H   0  0  0  0  0  0  0  0  0  0  0  0
    1.5182   -7.6215   -0.4100 H   0  0  0  0  0  0  0  0  0  0  0  0
    3.1887   -8.2770   -0.1940 H   0  0  0  0  0  0  0  0  0  0  0  0
    3.6527   -6.3425    0.1266 H   0  0  0  0  0  0  0  0  0  0  0  0
    7.8717   -1.5094   -0.4032 H   0  0  0  0  0  0  0  0  0  0  0  0
    7.9347    0.5678    2.6550 H   0  0  0  0  0  0  0  0  0  0  0  0
    9.3621    3.0213    5.8597 H   0  0  0  0  0  0  0  0  0  0  0  0
    9.9039    1.7449    4.7523 H   0  0  0  0  0  0  0  0  0  0  0  0
    8.3087    2.5485    4.5275 H   0  0  0  0  0  0  0  0  0  0  0  0
   10.9912    5.1808    2.0536 H   0  0  0  0  0  0  0  0  0  0  0  0
   11.0315    5.0616   -2.5578 H   0  0  0  0  0  0  0  0  0  0  0  0
    9.5171    4.2844   -2.0867 H   0  0  0  0  0  0  0  0  0  0  0  0
   11.0712    3.3657   -2.0630 H   0  0  0  0  0  0  0  0  0  0  0  0
  1  2  1  0  0  0  0
  1 55  1  0  0  0  0
  1 56  1  0  0  0  0
  1 57  1  0  0  0  0
  2  3  1  0  0  0  0
  2 58  1  0  0  0  0
  2 59  1  0  0  0  0
  3  4  1  0  0  0  0
  3 60  1  0  0  0  0
  4  5  2  0  0  0  0
  4  6  2  0  0  0  0
  4  7  1  0  0  0  0
  7  8  1  0  0  0  0
  7 12  2  0  0  0  0
  8  9  2  0  0  0  0
  8 61  1  0  0  0  0
  9 10  1  0  0  0  0
  9 62  1  0  0  0  0
 10 11  2  0  0  0  0
 10 63  1  0  0  0  0
 11 12  1  0  0  0  0
 11 64  1  0  0  0  0
 12 13  1  0  0  0  0
 13 14  1  0  0  0  0
 13 65  1  0  0  0  0
 14 15  1  0  0  0  0
 14 41  2  0  0  0  0
 15 16  2  0  0  0  0
 16 17  1  0  0  0  0
 16 39  1  0  0  0  0
 17 18  1  0  0  0  0
 17 66  1  0  0  0  0
 18 19  1  0  0  0  0
 18 38  2  0  0  0  0
 19 20  2  0  0  0  0
 19 67  1  0  0  0  0
 20 21  1  0  0  0  0
 20 68  1  0  0  0  0
 21 22  1  0  0  0  0
 21 35  2  0  0  0  0
 22 23  1  0  0  0  0
 22 34  1  0  0  0  0
 23 24  1  0  0  0  0
 23 69  1  0  0  0  0
 23 70  1  0  0  0  0
 24 25  1  0  0  0  0
 24 71  1  0  0  0  0
 24 72  1  0  0  0  0
 25 26  1  0  0  0  0
 25 33  1  0  0  0  0
 25 73  1  0  0  0  0
 26 27  1  0  0  0  0
 26 32  1  0  0  0  0
 27 28  1  0  0  0  0
 27 74  1  0  0  0  0
 27 75  1  0  0  0  0
 28 29  1  0  0  0  0
 28 76  1  0  0  0  0
 28 77  1  0  0  0  0
 29 30  1  0  0  0  0
 29 31  1  0  0  0  0
 30 78  1  0  0  0  0
 30 79  1  0  0  0  0
 30 80  1  0  0  0  0
 31 32  1  0  0  0  0
 31 81  1  0  0  0  0
 31 82  1  0  0  0  0
 32 83  1  0  0  0  0
 32 84  1  0  0  0  0
 33 34  1  0  0  0  0
 33 85  1  0  0  0  0
 33 86  1  0  0  0  0
 34 87  1  0  0  0  0
 34 88  1  0  0  0  0
 35 36  1  0  0  0  0
 35 38  1  0  0  0  0
 36 37  1  0  0  0  0
 37 89  1  0  0  0  0
 37 90  1  0  0  0  0
 37 91  1  0  0  0  0
 38 92  1  0  0  0  0
 39 40  2  0  0  0  0
 40 41  1  0  0  0  0
 40 93  1  0  0  0  0
 41 42  1  0  0  0  0
 42 43  1  0  0  0  0
 42 94  1  0  0  0  0
 43 44  2  0  0  0  0
 43 45  1  0  0  0  0
 45 46  1  0  0  0  0
 45 54  2  0  0  0  0
 46 47  2  0  0  0  0
 47 48  1  0  0  0  0
 47 50  1  0  0  0  0
 48 49  1  0  0  0  0
 49 95  1  0  0  0  0
 49 96  1  0  0  0  0
 49 97  1  0  0  0  0
 50 51  2  0  0  0  0
 50 98  1  0  0  0  0
 51 52  1  0  0  0  0
 51 54  1  0  0  0  0
 52 53  1  0  0  0  0
 53 99  1  0  0  0  0
 53100  1  0  0  0  0
 53101  1  0  0  0  0
M  END
$$$$
