CHEMBL2018755
 OpenBabel04072215363D

 47 49  0  0  0  0  0  0  0  0999 V2000
    3.9671   -1.5831    1.9084 C   0  0  0  0  0  0  0  0  0  0  0  0
    3.8740   -0.7004    0.7824 O   0  0  0  0  0  0  0  0  0  0  0  0
    4.6845   -1.0799   -0.2416 C   0  0  0  0  0  0  0  0  0  0  0  0
    5.3824   -2.0800   -0.1851 O   0  0  0  0  0  0  0  0  0  0  0  0
    4.6037   -0.1758   -1.2681 N   0  0  0  0  0  0  0  0  0  0  0  0
    5.2905   -0.2392   -2.4937 C   0  0  0  0  0  0  0  0  0  0  0  0
    5.9289   -1.4124   -2.9220 C   0  0  0  0  0  0  0  0  0  0  0  0
    6.6098   -1.4745   -4.1416 C   0  0  0  0  0  0  0  0  0  0  0  0
    6.6315   -0.3760   -4.9928 C   0  0  0  0  0  0  0  0  0  0  0  0
    7.3457   -0.4270   -6.2070 N   0  0  0  0  0  0  0  0  0  0  0  0
    7.0489    0.3366   -7.3607 C   0  0  0  0  0  0  0  0  0  0  0  0
    5.7588    0.6395   -7.5997 N   0  0  0  0  0  0  0  0  0  0  0  0
    5.5169    1.4481   -8.6275 C   0  0  0  0  0  0  0  0  0  0  0  0
    6.4377    2.0085   -9.4226 N   0  0  0  0  0  0  0  0  0  0  0  0
    7.7206    1.7006   -9.1799 C   0  0  0  0  0  0  0  0  0  0  0  0
    8.7393    2.3378   -9.8916 C   0  0  0  0  0  0  0  0  0  0  0  0
   10.1177    2.1062   -9.6643 C   0  0  0  0  0  0  0  0  0  0  0  0
   10.9268    3.0683  -10.2090 O   0  0  0  0  0  0  0  0  0  0  0  0
   11.8626    2.6659  -11.1977 C   0  0  0  0  0  0  0  0  0  0  0  0
   10.4866    1.1436   -8.7255 C   0  0  0  0  0  0  0  0  0  0  0  0
   11.6881    0.6964   -8.2735 O   0  0  0  0  0  0  0  0  0  0  0  0
   12.9226    1.1446   -8.7788 C   0  0  0  0  0  0  0  0  0  0  0  0
    9.4622    0.5150   -7.9947 C   0  0  0  0  0  0  0  0  0  0  0  0
    8.0924    0.8085   -8.1775 C   0  0  0  0  0  0  0  0  0  0  0  0
    6.0135    0.8054   -4.5542 C   0  0  0  0  0  0  0  0  0  0  0  0
    5.3438    0.8962   -3.3188 C   0  0  0  0  0  0  0  0  0  0  0  0
    4.7467    2.2238   -2.9371 C   0  0  0  0  0  0  0  0  0  0  0  0
    3.2749   -1.2373    2.6797 H   0  0  0  0  0  0  0  0  0  0  0  0
    4.9822   -1.5655    2.3201 H   0  0  0  0  0  0  0  0  0  0  0  0
    3.6884   -2.6045    1.6268 H   0  0  0  0  0  0  0  0  0  0  0  0
    4.0413    0.6317   -1.0527 H   0  0  0  0  0  0  0  0  0  0  0  0
    5.9063   -2.3215   -2.3300 H   0  0  0  0  0  0  0  0  0  0  0  0
    7.1024   -2.4032   -4.4124 H   0  0  0  0  0  0  0  0  0  0  0  0
    7.6809   -1.3485   -6.4587 H   0  0  0  0  0  0  0  0  0  0  0  0
    4.4774    1.6858   -8.8245 H   0  0  0  0  0  0  0  0  0  0  0  0
    8.4428    3.1047  -10.6073 H   0  0  0  0  0  0  0  0  0  0  0  0
   11.8242    3.3731  -12.0325 H   0  0  0  0  0  0  0  0  0  0  0  0
   11.7032    1.6542  -11.5808 H   0  0  0  0  0  0  0  0  0  0  0  0
   12.8666    2.7711  -10.7783 H   0  0  0  0  0  0  0  0  0  0  0  0
   13.7066    0.6334   -8.2089 H   0  0  0  0  0  0  0  0  0  0  0  0
   13.0542    2.2170   -8.6203 H   0  0  0  0  0  0  0  0  0  0  0  0
   13.0596    0.8371   -9.8175 H   0  0  0  0  0  0  0  0  0  0  0  0
    9.7579   -0.1804   -7.2097 H   0  0  0  0  0  0  0  0  0  0  0  0
    6.0689    1.6901   -5.1856 H   0  0  0  0  0  0  0  0  0  0  0  0
    5.0498    3.0140   -3.6345 H   0  0  0  0  0  0  0  0  0  0  0  0
    5.0941    2.5316   -1.9455 H   0  0  0  0  0  0  0  0  0  0  0  0
    3.6540    2.1723   -2.9474 H   0  0  0  0  0  0  0  0  0  0  0  0
  1  2  1  0  0  0  0
  1 28  1  0  0  0  0
  1 29  1  0  0  0  0
  1 30  1  0  0  0  0
  2  3  1  0  0  0  0
  3  4  2  0  0  0  0
  3  5  1  0  0  0  0
  5  6  1  0  0  0  0
  5 31  1  0  0  0  0
  6  7  1  0  0  0  0
  6 26  2  0  0  0  0
  7  8  2  0  0  0  0
  7 32  1  0  0  0  0
  8  9  1  0  0  0  0
  8 33  1  0  0  0  0
  9 10  1  0  0  0  0
  9 25  2  0  0  0  0
 10 11  1  0  0  0  0
 10 34  1  0  0  0  0
 11 12  1  0  0  0  0
 11 24  2  0  0  0  0
 12 13  2  0  0  0  0
 13 14  1  0  0  0  0
 13 35  1  0  0  0  0
 14 15  2  0  0  0  0
 15 16  1  0  0  0  0
 15 24  1  0  0  0  0
 16 17  2  0  0  0  0
 16 36  1  0  0  0  0
 17 18  1  0  0  0  0
 17 20  1  0  0  0  0
 18 19  1  0  0  0  0
 19 37  1  0  0  0  0
 19 38  1  0  0  0  0
 19 39  1  0  0  0  0
 20 21  1  0  0  0  0
 20 23  2  0  0  0  0
 21 22  1  0  0  0  0
 22 40  1  0  0  0  0
 22 41  1  0  0  0  0
 22 42  1  0  0  0  0
 23 24  1  0  0  0  0
 23 43  1  0  0  0  0
 25 26  1  0  0  0  0
 25 44  1  0  0  0  0
 26 27  1  0  0  0  0
 27 45  1  0  0  0  0
 27 46  1  0  0  0  0
 27 47  1  0  0  0  0
M  END
$$$$
