CHEMBL4464237
 OpenBabel04072215383D

 50 53  0  0  0  0  0  0  0  0999 V2000
    1.2447   -1.1097    0.1644 O   0  0  0  0  0  0  0  0  0  0  0  0
    2.2887   -0.4629    0.1530 C   0  0  0  0  0  0  0  0  0  0  0  0
    2.8278    0.1452    1.2784 N   0  0  0  0  0  0  0  0  0  0  0  0
    2.1942    0.1531    2.5625 C   0  0  0  0  0  0  0  0  0  0  0  0
    1.1027   -0.6663    2.8738 C   0  0  0  0  0  0  0  0  0  0  0  0
    0.4243   -0.5808    4.1017 C   0  0  0  0  0  0  0  0  0  0  0  0
    0.8484    0.2940    5.0977 C   0  0  0  0  0  0  0  0  0  0  0  0
    0.1608    0.3529    6.3339 N   0  0  0  0  0  0  0  0  0  0  0  0
    0.6634    0.4802    7.6519 C   0  0  0  0  0  0  0  0  0  0  0  0
    1.9730    0.0190    7.9263 C   0  0  0  0  0  0  0  0  0  0  0  0
    2.5369    0.0898    9.1965 C   0  0  0  0  0  0  0  0  0  0  0  0
    1.7935    0.7026   10.1898 C   0  0  0  0  0  0  0  0  0  0  0  0
    2.1972    0.6741   11.5792 N   0  3  0  0  0  0  0  0  0  0  0  0
    3.2065    1.3209   11.8842 O   0  0  0  0  0  0  0  0  0  0  0  0
    1.4834    0.0265   12.3667 O   0  5  0  0  0  0  0  0  0  0  0  0
    0.6214    1.3444    9.9271 C   0  0  0  0  0  0  0  0  0  0  0  0
    0.2399    2.1723   10.8918 N   0  0  0  0  0  0  0  0  0  0  0  0
   -0.9625    2.7055   10.7936 C   0  0  0  0  0  0  0  0  0  0  0  0
   -1.8267    2.4424    9.8125 N   0  0  0  0  0  0  0  0  0  0  0  0
   -1.3414    1.7066    8.7839 C   0  0  0  0  0  0  0  0  0  0  0  0
   -2.2358    1.4002    7.7919 O   0  0  0  0  0  0  0  0  0  0  0  0
   -0.0410    1.1560    8.7173 C   0  0  0  0  0  0  0  0  0  0  0  0
    2.0044    1.0451    4.8302 C   0  0  0  0  0  0  0  0  0  0  0  0
    2.6520    1.0047    3.5706 C   0  0  0  0  0  0  0  0  0  0  0  0
    3.0104   -0.2647   -1.0155 N   0  0  0  0  0  0  0  0  0  0  0  0
    2.5202   -0.6366   -2.3098 C   0  0  0  0  0  0  0  0  0  0  0  0
    1.1443   -0.7995   -2.5452 C   0  0  0  0  0  0  0  0  0  0  0  0
    0.6247   -1.1660   -3.7944 C   0  0  0  0  0  0  0  0  0  0  0  0
   -0.8669   -1.3421   -3.9524 C   0  0  0  0  0  0  0  0  0  0  0  0
   -1.5704   -1.1088   -2.8088 F   0  0  0  0  0  0  0  0  0  0  0  0
   -1.3839   -0.4926   -4.8817 F   0  0  0  0  0  0  0  0  0  0  0  0
   -1.2127   -2.5961   -4.3517 F   0  0  0  0  0  0  0  0  0  0  0  0
    1.5034   -1.3281   -4.8675 C   0  0  0  0  0  0  0  0  0  0  0  0
    2.8771   -1.1333   -4.6734 C   0  0  0  0  0  0  0  0  0  0  0  0
    3.3830   -0.8200   -3.3994 C   0  0  0  0  0  0  0  0  0  0  0  0
    5.0985   -0.7382   -3.2055 Cl  0  0  0  0  0  0  0  0  0  0  0  0
    3.6495    0.7202    1.1630 H   0  0  0  0  0  0  0  0  0  0  0  0
    0.7437   -1.4192    2.1810 H   0  0  0  0  0  0  0  0  0  0  0  0
   -0.4242   -1.2418    4.2611 H   0  0  0  0  0  0  0  0  0  0  0  0
   -0.8566    0.3409    6.2494 H   0  0  0  0  0  0  0  0  0  0  0  0
    2.5619   -0.4341    7.1352 H   0  0  0  0  0  0  0  0  0  0  0  0
    3.5326   -0.2819    9.4023 H   0  0  0  0  0  0  0  0  0  0  0  0
   -1.1783    3.3742   11.6184 H   0  0  0  0  0  0  0  0  0  0  0  0
   -3.1171    1.6258    8.1504 H   0  0  0  0  0  0  0  0  0  0  0  0
    2.3904    1.7143    5.5948 H   0  0  0  0  0  0  0  0  0  0  0  0
    3.4917    1.6760    3.4039 H   0  0  0  0  0  0  0  0  0  0  0  0
    4.0059   -0.0858   -0.9462 H   0  0  0  0  0  0  0  0  0  0  0  0
    0.4211   -0.6340   -1.7505 H   0  0  0  0  0  0  0  0  0  0  0  0
    1.1252   -1.6050   -5.8509 H   0  0  0  0  0  0  0  0  0  0  0  0
    3.5478   -1.2378   -5.5234 H   0  0  0  0  0  0  0  0  0  0  0  0
  1  2  2  0  0  0  0
  2  3  1  0  0  0  0
  2 25  1  0  0  0  0
  3  4  1  0  0  0  0
  3 37  1  0  0  0  0
  4  5  1  0  0  0  0
  4 24  2  0  0  0  0
  5  6  2  0  0  0  0
  5 38  1  0  0  0  0
  6  7  1  0  0  0  0
  6 39  1  0  0  0  0
  7  8  1  0  0  0  0
  7 23  2  0  0  0  0
  8  9  1  0  0  0  0
  8 40  1  0  0  0  0
  9 10  1  0  0  0  0
  9 22  2  0  0  0  0
 10 11  2  0  0  0  0
 10 41  1  0  0  0  0
 11 12  1  0  0  0  0
 11 42  1  0  0  0  0
 12 13  1  0  0  0  0
 12 16  2  0  0  0  0
 13 14  2  0  0  0  0
 13 15  1  0  0  0  0
 16 17  1  0  0  0  0
 16 22  1  0  0  0  0
 17 18  2  0  0  0  0
 18 19  1  0  0  0  0
 18 43  1  0  0  0  0
 19 20  2  0  0  0  0
 20 21  1  0  0  0  0
 20 22  1  0  0  0  0
 21 44  1  0  0  0  0
 23 24  1  0  0  0  0
 23 45  1  0  0  0  0
 24 46  1  0  0  0  0
 25 26  1  0  0  0  0
 25 47  1  0  0  0  0
 26 27  1  0  0  0  0
 26 35  2  0  0  0  0
 27 28  2  0  0  0  0
 27 48  1  0  0  0  0
 28 29  1  0  0  0  0
 28 33  1  0  0  0  0
 29 30  1  0  0  0  0
 29 31  1  0  0  0  0
 29 32  1  0  0  0  0
 33 34  2  0  0  0  0
 33 49  1  0  0  0  0
 34 35  1  0  0  0  0
 34 50  1  0  0  0  0
 35 36  1  0  0  0  0
M  CHG  2  13   1  15  -1
M  END
$$$$
