CHEMBL599993
 OpenBabel04072215383D

 43 45  0  0  1  0  0  0  0  0999 V2000
    3.9697    0.5445   -0.9875 C   0  0  0  0  0  0  0  0  0  0  0  0
    3.9770    0.4044    0.5383 C   0  0  3  0  0  0  0  0  0  0  0  0
    2.8028    1.0011    1.1307 O   0  0  0  0  0  0  0  0  0  0  0  0
    2.5751    2.3403    0.9602 C   0  0  0  0  0  0  0  0  0  0  0  0
    1.2400    2.7208    0.8061 C   0  0  0  0  0  0  0  0  0  0  0  0
    0.9078    4.0640    0.6023 C   0  0  0  0  0  0  0  0  0  0  0  0
    1.8724    5.0593    0.6029 C   0  0  0  0  0  0  0  0  0  0  0  0
    1.4875    6.3308    0.4155 N   0  0  0  0  0  0  0  0  0  0  0  0
    2.4336    7.2964    0.4932 C   0  0  0  0  0  0  0  0  0  0  0  0
    3.7789    7.0685    0.7503 C   0  0  0  0  0  0  0  0  0  0  0  0
    4.7523    8.1623    0.9135 C   0  0  0  0  0  0  0  0  0  0  0  0
    4.6658    9.3432    0.2769 C   0  0  0  0  0  0  0  0  0  0  0  0
    5.6367   10.4685    0.4260 C   0  0  0  0  0  0  0  0  0  0  0  0
    6.2043   10.7737   -0.8772 N   0  0  0  0  0  0  0  0  0  0  0  0
    4.1637    5.7353    0.9219 C   0  0  0  0  0  0  0  0  0  0  0  0
    3.2139    4.6950    0.8347 C   0  0  0  0  0  0  0  0  0  0  0  0
    3.5564    3.3298    0.9934 C   0  0  0  0  0  0  0  0  0  0  0  0
    4.1046   -1.0725    0.9570 C   0  0  0  0  0  0  0  0  0  0  0  0
    5.3794   -1.6498    1.1791 C   0  0  0  0  0  0  0  0  0  0  0  0
    6.8485   -0.8203    0.7839 Cl  0  0  0  0  0  0  0  0  0  0  0  0
    5.5316   -2.9526    1.6883 C   0  0  0  0  0  0  0  0  0  0  0  0
    4.4103   -3.7204    1.9841 C   0  0  0  0  0  0  0  0  0  0  0  0
    3.1523   -3.2064    1.6864 C   0  0  0  0  0  0  0  0  0  0  0  0
    2.0866   -3.9837    1.9372 F   0  0  0  0  0  0  0  0  0  0  0  0
    2.9923   -1.9220    1.1442 C   0  0  0  0  0  0  0  0  0  0  0  0
    1.3920   -1.4929    0.6351 Cl  0  0  0  0  0  0  0  0  0  0  0  0
    4.1435    1.5868   -1.2758 H   0  0  0  0  0  0  0  0  0  0  0  0
    2.9998    0.2634   -1.4093 H   0  0  0  0  0  0  0  0  0  0  0  0
    4.7471   -0.0593   -1.4646 H   0  0  0  0  0  0  0  0  0  0  0  0
    4.8413    0.9302    0.9574 H   0  0  0  0  0  0  0  0  0  0  0  0
    0.4489    1.9741    0.8334 H   0  0  0  0  0  0  0  0  0  0  0  0
   -0.1315    4.3461    0.4566 H   0  0  0  0  0  0  0  0  0  0  0  0
    2.0431    8.3013    0.3560 H   0  0  0  0  0  0  0  0  0  0  0  0
    5.5782    7.9709    1.5950 H   0  0  0  0  0  0  0  0  0  0  0  0
    3.8512    9.5413   -0.4168 H   0  0  0  0  0  0  0  0  0  0  0  0
    6.4354   10.2303    1.1359 H   0  0  0  0  0  0  0  0  0  0  0  0
    5.1083   11.3509    0.8041 H   0  0  0  0  0  0  0  0  0  0  0  0
    6.7504    9.9738   -1.1945 H   0  0  0  0  0  0  0  0  0  0  0  0
    6.8602   11.5469   -0.7864 H   0  0  0  0  0  0  0  0  0  0  0  0
    5.2028    5.4957    1.1362 H   0  0  0  0  0  0  0  0  0  0  0  0
    4.5941    3.0675    1.1632 H   0  0  0  0  0  0  0  0  0  0  0  0
    6.5192   -3.3724    1.8582 H   0  0  0  0  0  0  0  0  0  0  0  0
    4.5035   -4.7118    2.4009 H   0  0  0  0  0  0  0  0  0  0  0  0
  1  2  1  0  0  0  0
  1 27  1  0  0  0  0
  1 28  1  0  0  0  0
  1 29  1  0  0  0  0
  2  3  1  0  0  0  0
  2 18  1  0  0  0  0
  2 30  1  0  0  0  0
  3  4  1  0  0  0  0
  4  5  1  0  0  0  0
  4 17  2  0  0  0  0
  5  6  2  0  0  0  0
  5 31  1  0  0  0  0
  6  7  1  0  0  0  0
  6 32  1  0  0  0  0
  7  8  1  0  0  0  0
  7 16  2  0  0  0  0
  8  9  2  0  0  0  0
  9 10  1  0  0  0  0
  9 33  1  0  0  0  0
 10 11  1  0  0  0  0
 10 15  2  0  0  0  0
 11 12  2  0  0  0  0
 11 34  1  0  0  0  0
 12 13  1  0  0  0  0
 12 35  1  0  0  0  0
 13 14  1  0  0  0  0
 13 36  1  0  0  0  0
 13 37  1  0  0  0  0
 14 38  1  0  0  0  0
 14 39  1  0  0  0  0
 15 16  1  0  0  0  0
 15 40  1  0  0  0  0
 16 17  1  0  0  0  0
 17 41  1  0  0  0  0
 18 19  1  0  0  0  0
 18 25  2  0  0  0  0
 19 20  1  0  0  0  0
 19 21  2  0  0  0  0
 21 22  1  0  0  0  0
 21 42  1  0  0  0  0
 22 23  2  0  0  0  0
 22 43  1  0  0  0  0
 23 24  1  0  0  0  0
 23 25  1  0  0  0  0
 25 26  1  0  0  0  0
M  END
$$$$
