CHEMBL1076480
 OpenBabel04072215353D

 67 71  0  0  0  0  0  0  0  0999 V2000
    8.4151    3.1851    4.9516 C   0  0  0  0  0  0  0  0  0  0  0  0
    8.4632    4.0879    3.8519 O   0  0  0  0  0  0  0  0  0  0  0  0
    7.1830    4.2162    3.2116 C   0  0  0  0  0  0  0  0  0  0  0  0
    7.2986    5.2641    2.0928 C   0  0  0  0  0  0  0  0  0  0  0  0
    8.3276    4.8564    1.1277 N   0  0  0  0  0  0  0  0  0  0  0  0
    7.8909    3.9661    0.1363 C   0  0  0  0  0  0  0  0  0  0  0  0
    8.8249    3.1521   -0.4763 C   0  0  0  0  0  0  0  0  0  0  0  0
    8.3758    2.3323   -1.4948 C   0  0  0  0  0  0  0  0  0  0  0  0
    9.2662    1.4137   -2.1263 N   0  0  0  0  0  0  0  0  0  0  0  0
   10.4025    0.7948   -1.5895 C   0  0  0  0  0  0  0  0  0  0  0  0
   10.7323    0.8654   -0.2665 N   0  0  0  0  0  0  0  0  0  0  0  0
   12.0336    0.6166    0.2402 C   0  0  0  0  0  0  0  0  0  0  0  0
   13.1661    1.0011   -0.5068 C   0  0  0  0  0  0  0  0  0  0  0  0
   14.4699    0.7207   -0.0883 C   0  0  0  0  0  0  0  0  0  0  0  0
   15.6190    1.0594   -0.8431 N   0  0  0  0  0  0  0  0  0  0  0  0
   15.6504    1.9523   -1.9019 C   0  0  0  0  0  0  0  0  0  0  0  0
   14.7335    2.6888   -2.2516 O   0  0  0  0  0  0  0  0  0  0  0  0
   16.9417    2.0808   -2.6347 C   0  0  0  0  0  0  0  0  0  0  0  0
   17.8626    1.0332   -2.7589 C   0  0  0  0  0  0  0  0  0  0  0  0
   19.0247    1.2171   -3.5167 C   0  0  0  0  0  0  0  0  0  0  0  0
   19.2690    2.4372   -4.1567 C   0  0  0  0  0  0  0  0  0  0  0  0
   18.3534    3.4914   -4.0487 C   0  0  0  0  0  0  0  0  0  0  0  0
   18.5719    4.8144   -4.7400 C   0  0  0  0  0  0  0  0  0  0  0  0
   19.7311    4.8693   -5.4530 F   0  0  0  0  0  0  0  0  0  0  0  0
   17.5782    5.1164   -5.6201 F   0  0  0  0  0  0  0  0  0  0  0  0
   18.6258    5.8539   -3.8622 F   0  0  0  0  0  0  0  0  0  0  0  0
   17.1940    3.2995   -3.2837 C   0  0  0  0  0  0  0  0  0  0  0  0
   14.6502    0.0412    1.1149 C   0  0  0  0  0  0  0  0  0  0  0  0
   13.5459   -0.3209    1.8932 C   0  0  0  0  0  0  0  0  0  0  0  0
   12.2338   -0.0417    1.4699 C   0  0  0  0  0  0  0  0  0  0  0  0
   11.0865   -0.5092    2.3225 C   0  0  0  0  0  0  0  0  0  0  0  0
   11.0165    0.0692   -2.5013 N   0  0  0  0  0  0  0  0  0  0  0  0
   10.2610    0.1551   -3.6345 C   0  0  0  0  0  0  0  0  0  0  0  0
   10.4718   -0.4491   -4.8841 C   0  0  0  0  0  0  0  0  0  0  0  0
    9.5740   -0.1896   -5.9253 C   0  0  0  0  0  0  0  0  0  0  0  0
    8.4859    0.6571   -5.7276 C   0  0  0  0  0  0  0  0  0  0  0  0
    8.2542    1.2545   -4.4848 C   0  0  0  0  0  0  0  0  0  0  0  0
    9.1548    0.9734   -3.4427 C   0  0  0  0  0  0  0  0  0  0  0  0
    7.1022    2.3808   -1.9434 N   0  0  0  0  0  0  0  0  0  0  0  0
    6.2860    3.2264   -1.3113 C   0  0  0  0  0  0  0  0  0  0  0  0
    6.6132    3.9995   -0.2715 N   0  0  0  0  0  0  0  0  0  0  0  0
    9.4088    3.1482    5.4048 H   0  0  0  0  0  0  0  0  0  0  0  0
    8.1508    2.1825    4.6046 H   0  0  0  0  0  0  0  0  0  0  0  0
    7.6981    3.5306    5.7001 H   0  0  0  0  0  0  0  0  0  0  0  0
    6.4353    4.5380    3.9426 H   0  0  0  0  0  0  0  0  0  0  0  0
    6.8926    3.2404    2.8035 H   0  0  0  0  0  0  0  0  0  0  0  0
    7.6315    6.2110    2.5327 H   0  0  0  0  0  0  0  0  0  0  0  0
    6.3227    5.4541    1.6325 H   0  0  0  0  0  0  0  0  0  0  0  0
    9.1233    4.4801    1.6435 H   0  0  0  0  0  0  0  0  0  0  0  0
    9.8644    3.2027   -0.1784 H   0  0  0  0  0  0  0  0  0  0  0  0
    9.9916    0.7271    0.4102 H   0  0  0  0  0  0  0  0  0  0  0  0
   12.9972    1.5112   -1.4507 H   0  0  0  0  0  0  0  0  0  0  0  0
   16.4973    0.6828   -0.5146 H   0  0  0  0  0  0  0  0  0  0  0  0
   17.6766    0.0594   -2.3153 H   0  0  0  0  0  0  0  0  0  0  0  0
   19.7359    0.4003   -3.6296 H   0  0  0  0  0  0  0  0  0  0  0  0
   20.1735    2.5558   -4.7533 H   0  0  0  0  0  0  0  0  0  0  0  0
   16.4656    4.1071   -3.2054 H   0  0  0  0  0  0  0  0  0  0  0  0
   15.6454   -0.2039    1.4745 H   0  0  0  0  0  0  0  0  0  0  0  0
   13.7187   -0.8403    2.8339 H   0  0  0  0  0  0  0  0  0  0  0  0
   11.4360   -0.9508    3.2622 H   0  0  0  0  0  0  0  0  0  0  0  0
   10.5112   -1.2739    1.7908 H   0  0  0  0  0  0  0  0  0  0  0  0
   10.4320    0.3288    2.5828 H   0  0  0  0  0  0  0  0  0  0  0  0
   11.3281   -1.0975   -5.0326 H   0  0  0  0  0  0  0  0  0  0  0  0
    9.7355   -0.6437   -6.8994 H   0  0  0  0  0  0  0  0  0  0  0  0
    7.8081    0.8669   -6.5525 H   0  0  0  0  0  0  0  0  0  0  0  0
    7.4127    1.9268   -4.3507 H   0  0  0  0  0  0  0  0  0  0  0  0
    5.2667    3.2933   -1.6756 H   0  0  0  0  0  0  0  0  0  0  0  0
  1  2  1  0  0  0  0
  1 42  1  0  0  0  0
  1 43  1  0  0  0  0
  1 44  1  0  0  0  0
  2  3  1  0  0  0  0
  3  4  1  0  0  0  0
  3 45  1  0  0  0  0
  3 46  1  0  0  0  0
  4  5  1  0  0  0  0
  4 47  1  0  0  0  0
  4 48  1  0  0  0  0
  5  6  1  0  0  0  0
  5 49  1  0  0  0  0
  6  7  1  0  0  0  0
  6 41  2  0  0  0  0
  7  8  2  0  0  0  0
  7 50  1  0  0  0  0
  8  9  1  0  0  0  0
  8 39  1  0  0  0  0
  9 10  1  0  0  0  0
  9 38  1  0  0  0  0
 10 11  1  0  0  0  0
 10 32  2  0  0  0  0
 11 12  1  0  0  0  0
 11 51  1  0  0  0  0
 12 13  1  0  0  0  0
 12 30  2  0  0  0  0
 13 14  2  0  0  0  0
 13 52  1  0  0  0  0
 14 15  1  0  0  0  0
 14 28  1  0  0  0  0
 15 16  1  0  0  0  0
 15 53  1  0  0  0  0
 16 17  2  0  0  0  0
 16 18  1  0  0  0  0
 18 19  1  0  0  0  0
 18 27  2  0  0  0  0
 19 20  2  0  0  0  0
 19 54  1  0  0  0  0
 20 21  1  0  0  0  0
 20 55  1  0  0  0  0
 21 22  2  0  0  0  0
 21 56  1  0  0  0  0
 22 23  1  0  0  0  0
 22 27  1  0  0  0  0
 23 24  1  0  0  0  0
 23 25  1  0  0  0  0
 23 26  1  0  0  0  0
 27 57  1  0  0  0  0
 28 29  2  0  0  0  0
 28 58  1  0  0  0  0
 29 30  1  0  0  0  0
 29 59  1  0  0  0  0
 30 31  1  0  0  0  0
 31 60  1  0  0  0  0
 31 61  1  0  0  0  0
 31 62  1  0  0  0  0
 32 33  1  0  0  0  0
 33 34  1  0  0  0  0
 33 38  2  0  0  0  0
 34 35  2  0  0  0  0
 34 63  1  0  0  0  0
 35 36  1  0  0  0  0
 35 64  1  0  0  0  0
 36 37  2  0  0  0  0
 36 65  1  0  0  0  0
 37 38  1  0  0  0  0
 37 66  1  0  0  0  0
 39 40  2  0  0  0  0
 40 41  1  0  0  0  0
 40 67  1  0  0  0  0
M  END
$$$$
