CHEMBL3901265
 OpenBabel04072215373D

 57 61  0  0  0  0  0  0  0  0999 V2000
    1.0018    4.8442    0.2470 C   0  0  0  0  0  0  0  0  0  0  0  0
    2.2716    4.8241   -0.4058 O   0  0  0  0  0  0  0  0  0  0  0  0
    2.9872    3.6580   -0.2953 C   0  0  0  0  0  0  0  0  0  0  0  0
    2.4023    2.4260    0.0352 C   0  0  0  0  0  0  0  0  0  0  0  0
    3.1795    1.2851    0.0918 C   0  0  0  0  0  0  0  0  0  0  0  0
    2.7042    0.0150    0.3110 O   0  0  0  0  0  0  0  0  0  0  0  0
    1.2887   -0.1312    0.4390 C   0  0  0  0  0  0  0  0  0  0  0  0
    4.5622    1.4087   -0.0988 C   0  0  0  0  0  0  0  0  0  0  0  0
    5.2001    2.6376   -0.4630 C   0  0  0  0  0  0  0  0  0  0  0  0
    6.6247    2.6734   -0.7390 N   0  0  0  0  0  0  0  0  0  0  0  0
    6.9012    1.4529   -1.6790 C   0  0  0  0  0  0  0  0  0  0  0  0
    8.1512    0.6634   -1.3437 C   0  0  0  0  0  0  0  0  0  0  0  0
    8.2120    0.1769   -0.0837 N   0  0  0  0  0  0  0  0  0  0  0  0
    9.1976   -0.6966    0.1800 C   0  0  0  0  0  0  0  0  0  0  0  0
   10.1259   -1.0961   -0.7572 C   0  0  0  0  0  0  0  0  0  0  0  0
    9.9729   -0.5619   -2.0030 C   0  0  0  0  0  0  0  0  0  0  0  0
    8.9906    0.3092   -2.3298 N   0  0  0  0  0  0  0  0  0  0  0  0
    7.4948    3.8085   -1.0603 C   0  0  0  0  0  0  0  0  0  0  0  0
    7.8973    3.8429   -2.3669 C   0  0  0  0  0  0  0  0  0  0  0  0
    9.0792    4.3883   -2.6979 C   0  0  0  0  0  0  0  0  0  0  0  0
    9.7743    5.1952   -1.8845 C   0  0  0  0  0  0  0  0  0  0  0  0
   10.6942    5.5452   -2.7016 N   0  0  0  0  0  0  0  0  0  0  0  0
   11.0104    6.8260   -2.6951 C   0  0  0  0  0  0  0  0  0  0  0  0
   11.2367    7.4226   -1.4752 C   0  0  0  0  0  0  0  0  0  0  0  0
   12.6893    7.9663   -1.6562 C   0  0  0  0  0  0  0  0  0  0  0  0
   13.6406    7.1594   -2.4345 C   0  0  0  0  0  0  0  0  0  0  0  0
   14.5186    7.8344   -3.1693 N   0  0  0  0  0  0  0  0  0  0  0  0
   14.2574    9.1112   -2.8844 N   0  0  0  0  0  0  0  0  0  0  0  0
   15.1048   10.0895   -3.5581 C   0  0  0  0  0  0  0  0  0  0  0  0
   13.1355    9.2541   -2.0588 C   0  0  0  0  0  0  0  0  0  0  0  0
   10.4746    6.8749   -0.3912 N   0  0  0  0  0  0  0  0  0  0  0  0
    9.4275    5.7134   -0.6251 C   0  0  0  0  0  0  0  0  0  0  0  0
    8.1797    4.8142   -0.2008 C   0  0  0  0  0  0  0  0  0  0  0  0
    4.3666    3.7501   -0.5797 C   0  0  0  0  0  0  0  0  0  0  0  0
    0.5663    5.8373    0.1085 H   0  0  0  0  0  0  0  0  0  0  0  0
    1.1123    4.6682    1.3232 H   0  0  0  0  0  0  0  0  0  0  0  0
    0.3023    4.1267   -0.1959 H   0  0  0  0  0  0  0  0  0  0  0  0
    1.3433    2.3584    0.2382 H   0  0  0  0  0  0  0  0  0  0  0  0
    1.0528   -1.1972    0.5241 H   0  0  0  0  0  0  0  0  0  0  0  0
    0.7584    0.2489   -0.4425 H   0  0  0  0  0  0  0  0  0  0  0  0
    0.9337    0.3607    1.3508 H   0  0  0  0  0  0  0  0  0  0  0  0
    5.1423    0.4938    0.0225 H   0  0  0  0  0  0  0  0  0  0  0  0
    6.8865    1.6972   -2.7495 H   0  0  0  0  0  0  0  0  0  0  0  0
    6.1077    0.7016   -1.6910 H   0  0  0  0  0  0  0  0  0  0  0  0
    9.2177   -1.0671    1.2040 H   0  0  0  0  0  0  0  0  0  0  0  0
   10.9503   -1.7710   -0.5420 H   0  0  0  0  0  0  0  0  0  0  0  0
   10.6491   -0.8322   -2.8095 H   0  0  0  0  0  0  0  0  0  0  0  0
    7.4311    3.3351   -3.1980 H   0  0  0  0  0  0  0  0  0  0  0  0
    9.4500    4.2122   -3.7031 H   0  0  0  0  0  0  0  0  0  0  0  0
   11.4435    7.1144   -3.6160 H   0  0  0  0  0  0  0  0  0  0  0  0
   13.5611    6.1000   -2.6536 H   0  0  0  0  0  0  0  0  0  0  0  0
   15.8467    9.5609   -4.1791 H   0  0  0  0  0  0  0  0  0  0  0  0
   15.6521   10.6700   -2.8135 H   0  0  0  0  0  0  0  0  0  0  0  0
   14.5159   10.7271   -4.2216 H   0  0  0  0  0  0  0  0  0  0  0  0
   12.7549   10.2515   -1.8899 H   0  0  0  0  0  0  0  0  0  0  0  0
    7.7975    4.9608    0.8132 H   0  0  0  0  0  0  0  0  0  0  0  0
    4.7682    4.7033   -0.9086 H   0  0  0  0  0  0  0  0  0  0  0  0
  1  2  1  0  0  0  0
  1 35  1  0  0  0  0
  1 36  1  0  0  0  0
  1 37  1  0  0  0  0
  2  3  1  0  0  0  0
  3  4  1  0  0  0  0
  3 34  2  0  0  0  0
  4  5  2  0  0  0  0
  4 38  1  0  0  0  0
  5  6  1  0  0  0  0
  5  8  1  0  0  0  0
  6  7  1  0  0  0  0
  7 39  1  0  0  0  0
  7 40  1  0  0  0  0
  7 41  1  0  0  0  0
  8  9  2  0  0  0  0
  8 42  1  0  0  0  0
  9 10  1  0  0  0  0
  9 34  1  0  0  0  0
 10 11  1  0  0  0  0
 10 18  1  0  0  0  0
 11 12  1  0  0  0  0
 11 43  1  0  0  0  0
 11 44  1  0  0  0  0
 12 13  1  0  0  0  0
 12 17  2  0  0  0  0
 13 14  2  0  0  0  0
 14 15  1  0  0  0  0
 14 45  1  0  0  0  0
 15 16  2  0  0  0  0
 15 46  1  0  0  0  0
 16 17  1  0  0  0  0
 16 47  1  0  0  0  0
 18 19  1  0  0  0  0
 18 33  2  0  0  0  0
 19 20  2  0  0  0  0
 19 48  1  0  0  0  0
 20 21  1  0  0  0  0
 20 49  1  0  0  0  0
 21 22  1  0  0  0  0
 21 32  2  0  0  0  0
 22 23  2  0  0  0  0
 23 24  1  0  0  0  0
 23 50  1  0  0  0  0
 24 25  1  0  0  0  0
 24 31  2  0  0  0  0
 25 26  1  0  0  0  0
 25 30  2  0  0  0  0
 26 27  2  0  0  0  0
 26 51  1  0  0  0  0
 27 28  1  0  0  0  0
 28 29  1  0  0  0  0
 28 30  1  0  0  0  0
 29 52  1  0  0  0  0
 29 53  1  0  0  0  0
 29 54  1  0  0  0  0
 30 55  1  0  0  0  0
 31 32  1  0  0  0  0
 32 33  1  0  0  0  0
 33 56  1  0  0  0  0
 34 57  1  0  0  0  0
M  END
$$$$
