CHEMBL4163870
 OpenBabel04072215383D

 57 61  0  0  0  0  0  0  0  0999 V2000
    3.7484   -8.5467   -4.0226 C   0  0  0  0  0  0  0  0  0  0  0  0
    3.6698   -8.8503   -2.5573 C   0  0  0  0  0  0  0  0  0  0  0  0
    3.5495  -10.1360   -2.1864 N   0  0  0  0  0  0  0  0  0  0  0  0
    3.4940  -10.3215   -0.8698 C   0  0  0  0  0  0  0  0  0  0  0  0
    3.5526   -9.3104    0.0792 C   0  0  0  0  0  0  0  0  0  0  0  0
    3.7017   -8.0215   -0.3847 C   0  0  0  0  0  0  0  0  0  0  0  0
    3.7812   -6.9310    0.5248 N   0  0  0  0  0  0  0  0  0  0  0  0
    4.0238   -5.6297    0.2088 C   0  0  0  0  0  0  0  0  0  0  0  0
    3.5361   -4.9504   -0.8786 C   0  0  0  0  0  0  0  0  0  0  0  0
    4.0029   -3.6800   -0.7783 N   0  0  0  0  0  0  0  0  0  0  0  0
    4.7645   -3.4604    0.3121 N   0  0  0  0  0  0  0  0  0  0  0  0
    4.8119   -4.6694    0.9163 C   0  0  0  0  0  0  0  0  0  0  0  0
    5.6268   -4.8906    2.1250 C   0  0  0  0  0  0  0  0  0  0  0  0
    5.6893   -5.9909    2.6566 O   0  0  0  0  0  0  0  0  0  0  0  0
    6.2505   -3.7296    2.5792 N   0  0  0  0  0  0  0  0  0  0  0  0
    7.0934   -3.6047    3.6999 C   0  0  0  0  0  0  0  0  0  0  0  0
    7.7215   -4.6900    4.3072 C   0  0  0  0  0  0  0  0  0  0  0  0
    8.5084   -4.5157    5.4556 C   0  0  0  0  0  0  0  0  0  0  0  0
    8.6843   -3.2627    6.0486 C   0  0  0  0  0  0  0  0  0  0  0  0
    9.4256   -3.0801    7.2021 N   0  0  0  0  0  0  0  0  0  0  0  0
   10.5682   -3.9383    7.5536 C   0  0  0  0  0  0  0  0  0  0  0  0
   10.3208   -4.7110    8.8667 C   0  0  0  0  0  0  0  0  0  0  0  0
    9.9193   -3.8413    9.9938 N   0  0  0  0  0  0  0  0  0  0  0  0
    8.7071   -3.0969    9.5898 C   0  0  0  0  0  0  0  0  0  0  0  0
    8.8839   -2.2592    8.2990 C   0  0  0  0  0  0  0  0  0  0  0  0
    8.0774   -2.1734    5.3997 C   0  0  0  0  0  0  0  0  0  0  0  0
    7.3115   -2.3345    4.2329 C   0  0  0  0  0  0  0  0  0  0  0  0
    3.7413   -7.7972   -1.7129 N   0  0  0  0  0  0  0  0  0  0  0  0
    3.5499   -9.8703    1.4543 C   0  0  0  0  0  0  0  0  0  0  0  0
    3.0202  -11.2938    1.2067 C   0  0  0  0  0  0  0  0  0  0  0  0
    3.4373  -11.6717   -0.2168 C   0  0  0  0  0  0  0  0  0  0  0  0
    3.6886   -9.4608   -4.6189 H   0  0  0  0  0  0  0  0  0  0  0  0
    4.6956   -8.0476   -4.2439 H   0  0  0  0  0  0  0  0  0  0  0  0
    2.9240   -7.8882   -4.3087 H   0  0  0  0  0  0  0  0  0  0  0  0
    4.0496   -7.2406    1.4560 H   0  0  0  0  0  0  0  0  0  0  0  0
    2.9046   -5.2647   -1.6988 H   0  0  0  0  0  0  0  0  0  0  0  0
    3.8336   -2.9087   -1.4153 H   0  0  0  0  0  0  0  0  0  0  0  0
    5.9639   -2.8892    2.0836 H   0  0  0  0  0  0  0  0  0  0  0  0
    7.6327   -5.6926    3.9019 H   0  0  0  0  0  0  0  0  0  0  0  0
    8.9483   -5.4050    5.8997 H   0  0  0  0  0  0  0  0  0  0  0  0
   11.4426   -3.2885    7.6870 H   0  0  0  0  0  0  0  0  0  0  0  0
   10.8372   -4.6391    6.7562 H   0  0  0  0  0  0  0  0  0  0  0  0
   11.2386   -5.2386    9.1505 H   0  0  0  0  0  0  0  0  0  0  0  0
    9.5516   -5.4778    8.7139 H   0  0  0  0  0  0  0  0  0  0  0  0
   10.6656   -3.1634   10.1477 H   0  0  0  0  0  0  0  0  0  0  0  0
    8.4198   -2.4321   10.4123 H   0  0  0  0  0  0  0  0  0  0  0  0
    7.8819   -3.8085    9.4602 H   0  0  0  0  0  0  0  0  0  0  0  0
    9.5809   -1.4348    8.4925 H   0  0  0  0  0  0  0  0  0  0  0  0
    7.9138   -1.8128    8.0508 H   0  0  0  0  0  0  0  0  0  0  0  0
    8.2180   -1.1702    5.7901 H   0  0  0  0  0  0  0  0  0  0  0  0
    6.8675   -1.4524    3.7765 H   0  0  0  0  0  0  0  0  0  0  0  0
    2.8928   -9.3196    2.1364 H   0  0  0  0  0  0  0  0  0  0  0  0
    4.5661   -9.8990    1.8599 H   0  0  0  0  0  0  0  0  0  0  0  0
    1.9246  -11.2884    1.2702 H   0  0  0  0  0  0  0  0  0  0  0  0
    3.3816  -12.0123    1.9513 H   0  0  0  0  0  0  0  0  0  0  0  0
    2.7103  -12.3327   -0.6966 H   0  0  0  0  0  0  0  0  0  0  0  0
    4.4314  -12.1348   -0.2341 H   0  0  0  0  0  0  0  0  0  0  0  0
  1  2  1  0  0  0  0
  1 32  1  0  0  0  0
  1 33  1  0  0  0  0
  1 34  1  0  0  0  0
  2  3  1  0  0  0  0
  2 28  2  0  0  0  0
  3  4  2  0  0  0  0
  4  5  1  0  0  0  0
  4 31  1  0  0  0  0
  5  6  2  0  0  0  0
  5 29  1  0  0  0  0
  6  7  1  0  0  0  0
  6 28  1  0  0  0  0
  7  8  1  0  0  0  0
  7 35  1  0  0  0  0
  8  9  2  0  0  0  0
  8 12  1  0  0  0  0
  9 10  1  0  0  0  0
  9 36  1  0  0  0  0
 10 11  1  0  0  0  0
 10 37  1  0  0  0  0
 11 12  2  0  0  0  0
 12 13  1  0  0  0  0
 13 14  2  0  0  0  0
 13 15  1  0  0  0  0
 15 16  1  0  0  0  0
 15 38  1  0  0  0  0
 16 17  1  0  0  0  0
 16 27  2  0  0  0  0
 17 18  2  0  0  0  0
 17 39  1  0  0  0  0
 18 19  1  0  0  0  0
 18 40  1  0  0  0  0
 19 20  1  0  0  0  0
 19 26  2  0  0  0  0
 20 21  1  0  0  0  0
 20 25  1  0  0  0  0
 21 22  1  0  0  0  0
 21 41  1  0  0  0  0
 21 42  1  0  0  0  0
 22 23  1  0  0  0  0
 22 43  1  0  0  0  0
 22 44  1  0  0  0  0
 23 24  1  0  0  0  0
 23 45  1  0  0  0  0
 24 25  1  0  0  0  0
 24 46  1  0  0  0  0
 24 47  1  0  0  0  0
 25 48  1  0  0  0  0
 25 49  1  0  0  0  0
 26 27  1  0  0  0  0
 26 50  1  0  0  0  0
 27 51  1  0  0  0  0
 29 30  1  0  0  0  0
 29 52  1  0  0  0  0
 29 53  1  0  0  0  0
 30 31  1  0  0  0  0
 30 54  1  0  0  0  0
 30 55  1  0  0  0  0
 31 56  1  0  0  0  0
 31 57  1  0  0  0  0
M  END
$$$$
