CHEMBL4581503
 OpenBabel04072215383D

 75 80  0  0  0  0  0  0  0  0999 V2000
    5.9502    0.3364   -7.0023 O   0  0  0  0  0  0  0  0  0  0  0  0
    6.5150   -0.6926   -7.3784 C   0  0  0  0  0  0  0  0  0  0  0  0
    6.1789   -1.3704   -8.5272 N   0  0  0  0  0  0  0  0  0  0  0  0
    5.1304   -0.9757   -9.4006 C   0  0  0  0  0  0  0  0  0  0  0  0
    4.5850    0.3134   -9.3873 C   0  0  0  0  0  0  0  0  0  0  0  0
    3.5255    0.6843  -10.2269 C   0  0  0  0  0  0  0  0  0  0  0  0
    2.9806    2.0961  -10.1618 C   0  0  0  0  0  0  0  0  0  0  0  0
    3.5844    2.8740   -9.2228 F   0  0  0  0  0  0  0  0  0  0  0  0
    3.1220    2.7550  -11.3411 F   0  0  0  0  0  0  0  0  0  0  0  0
    1.6502    2.1243   -9.8683 F   0  0  0  0  0  0  0  0  0  0  0  0
    3.0111   -0.2670  -11.1170 C   0  0  0  0  0  0  0  0  0  0  0  0
    3.5533   -1.5558  -11.1579 C   0  0  0  0  0  0  0  0  0  0  0  0
    4.6069   -1.8979  -10.3078 C   0  0  0  0  0  0  0  0  0  0  0  0
    5.1001   -3.1456  -10.3518 F   0  0  0  0  0  0  0  0  0  0  0  0
    7.5270   -1.2861   -6.6604 N   0  0  0  0  0  0  0  0  0  0  0  0
    7.8835   -0.9101   -5.3368 C   0  0  0  0  0  0  0  0  0  0  0  0
    6.9917   -0.2100   -4.5089 C   0  0  0  0  0  0  0  0  0  0  0  0
    7.3210    0.1021   -3.1959 C   0  0  0  0  0  0  0  0  0  0  0  0
    8.5389   -0.3096   -2.6768 C   0  0  0  0  0  0  0  0  0  0  0  0
    8.7540    0.0373   -1.3682 O   0  0  0  0  0  0  0  0  0  0  0  0
    9.4994   -0.8157   -0.5802 C   0  0  0  0  0  0  0  0  0  0  0  0
    9.4015   -2.1448   -0.8297 N   0  0  0  0  0  0  0  0  0  0  0  0
   10.1745   -2.9271   -0.0869 C   0  0  0  0  0  0  0  0  0  0  0  0
   10.9976   -2.5086    0.8691 N   0  0  0  0  0  0  0  0  0  0  0  0
   11.0251   -1.1900    1.1094 C   0  0  0  0  0  0  0  0  0  0  0  0
   11.8681   -0.7823    2.1077 C   0  0  0  0  0  0  0  0  0  0  0  0
   11.9996    0.5543    2.4990 C   0  0  0  0  0  0  0  0  0  0  0  0
   12.8339    0.9320    3.5323 O   0  0  0  0  0  0  0  0  0  0  0  0
   13.5338   -0.1617    4.1470 C   0  0  0  0  0  0  0  0  0  0  0  0
   14.4764    0.2898    5.2445 C   0  0  0  0  0  0  0  0  0  0  0  0
   15.5416    1.2162    4.6657 C   0  0  0  0  0  0  0  0  0  0  0  0
   16.5235    1.6845    5.6553 N   0  0  0  0  0  0  0  0  0  0  0  0
   17.4857    2.6067    5.0060 C   0  0  0  0  0  0  0  0  0  0  0  0
   18.5031    1.9028    4.0853 C   0  0  0  0  0  0  0  0  0  0  0  0
   19.1944    0.8408    4.7570 O   0  0  0  0  0  0  0  0  0  0  0  0
   18.2712   -0.0989    5.3216 C   0  0  0  0  0  0  0  0  0  0  0  0
   17.3055    0.6006    6.2892 C   0  0  0  0  0  0  0  0  0  0  0  0
   11.2459    1.5311    1.8331 C   0  0  0  0  0  0  0  0  0  0  0  0
   10.4031    1.1385    0.7789 C   0  0  0  0  0  0  0  0  0  0  0  0
   10.2812   -0.2432    0.4199 C   0  0  0  0  0  0  0  0  0  0  0  0
    9.6446    2.0383    0.0680 O   0  0  0  0  0  0  0  0  0  0  0  0
   10.0513    3.3930    0.2631 C   0  0  0  0  0  0  0  0  0  0  0  0
   10.2865    3.6571    1.7357 C   0  0  0  0  0  0  0  0  0  0  0  0
   11.3618    2.8445    2.2270 O   0  0  0  0  0  0  0  0  0  0  0  0
    9.4638   -0.9673   -3.4920 C   0  0  0  0  0  0  0  0  0  0  0  0
    9.1322   -1.2727   -4.8135 C   0  0  0  0  0  0  0  0  0  0  0  0
   10.3143   -2.0725   -5.7916 Cl  0  0  0  0  0  0  0  0  0  0  0  0
    6.5280   -2.3158   -8.6419 H   0  0  0  0  0  0  0  0  0  0  0  0
    4.9775    1.0824   -8.7274 H   0  0  0  0  0  0  0  0  0  0  0  0
    2.1909   -0.0027  -11.7828 H   0  0  0  0  0  0  0  0  0  0  0  0
    3.1563   -2.2969  -11.8452 H   0  0  0  0  0  0  0  0  0  0  0  0
    8.1955   -1.8581   -7.1631 H   0  0  0  0  0  0  0  0  0  0  0  0
    6.0066    0.0966   -4.8440 H   0  0  0  0  0  0  0  0  0  0  0  0
    6.6137    0.6482   -2.5764 H   0  0  0  0  0  0  0  0  0  0  0  0
   10.1450   -3.9942   -0.2775 H   0  0  0  0  0  0  0  0  0  0  0  0
   12.4227   -1.5810    2.5883 H   0  0  0  0  0  0  0  0  0  0  0  0
   14.1364   -0.6838    3.3934 H   0  0  0  0  0  0  0  0  0  0  0  0
   12.8081   -0.8553    4.5958 H   0  0  0  0  0  0  0  0  0  0  0  0
   14.9300   -0.6168    5.6619 H   0  0  0  0  0  0  0  0  0  0  0  0
   13.9216    0.7921    6.0431 H   0  0  0  0  0  0  0  0  0  0  0  0
   15.0305    2.0930    4.2489 H   0  0  0  0  0  0  0  0  0  0  0  0
   16.0265    0.7123    3.8214 H   0  0  0  0  0  0  0  0  0  0  0  0
   18.0331    3.1220    5.8045 H   0  0  0  0  0  0  0  0  0  0  0  0
   16.9525    3.3871    4.4496 H   0  0  0  0  0  0  0  0  0  0  0  0
   19.2566    2.6261    3.7565 H   0  0  0  0  0  0  0  0  0  0  0  0
   18.0261    1.5017    3.1843 H   0  0  0  0  0  0  0  0  0  0  0  0
   18.8537   -0.8517    5.8620 H   0  0  0  0  0  0  0  0  0  0  0  0
   17.7398   -0.6181    4.5154 H   0  0  0  0  0  0  0  0  0  0  0  0
   17.8937    1.0552    7.0974 H   0  0  0  0  0  0  0  0  0  0  0  0
   16.6570   -0.1298    6.7823 H   0  0  0  0  0  0  0  0  0  0  0  0
    9.2492    4.0360   -0.1190 H   0  0  0  0  0  0  0  0  0  0  0  0
   10.9489    3.5800   -0.3374 H   0  0  0  0  0  0  0  0  0  0  0  0
    9.3870    3.4446    2.3272 H   0  0  0  0  0  0  0  0  0  0  0  0
   10.5523    4.7083    1.8902 H   0  0  0  0  0  0  0  0  0  0  0  0
   10.4339   -1.2575   -3.0998 H   0  0  0  0  0  0  0  0  0  0  0  0
  1  2  2  0  0  0  0
  2  3  1  0  0  0  0
  2 15  1  0  0  0  0
  3  4  1  0  0  0  0
  3 48  1  0  0  0  0
  4  5  1  0  0  0  0
  4 13  2  0  0  0  0
  5  6  2  0  0  0  0
  5 49  1  0  0  0  0
  6  7  1  0  0  0  0
  6 11  1  0  0  0  0
  7  8  1  0  0  0  0
  7  9  1  0  0  0  0
  7 10  1  0  0  0  0
 11 12  2  0  0  0  0
 11 50  1  0  0  0  0
 12 13  1  0  0  0  0
 12 51  1  0  0  0  0
 13 14  1  0  0  0  0
 15 16  1  0  0  0  0
 15 52  1  0  0  0  0
 16 17  1  0  0  0  0
 16 46  2  0  0  0  0
 17 18  2  0  0  0  0
 17 53  1  0  0  0  0
 18 19  1  0  0  0  0
 18 54  1  0  0  0  0
 19 20  1  0  0  0  0
 19 45  2  0  0  0  0
 20 21  1  0  0  0  0
 21 22  1  0  0  0  0
 21 40  2  0  0  0  0
 22 23  2  0  0  0  0
 23 24  1  0  0  0  0
 23 55  1  0  0  0  0
 24 25  2  0  0  0  0
 25 26  1  0  0  0  0
 25 40  1  0  0  0  0
 26 27  2  0  0  0  0
 26 56  1  0  0  0  0
 27 28  1  0  0  0  0
 27 38  1  0  0  0  0
 28 29  1  0  0  0  0
 29 30  1  0  0  0  0
 29 57  1  0  0  0  0
 29 58  1  0  0  0  0
 30 31  1  0  0  0  0
 30 59  1  0  0  0  0
 30 60  1  0  0  0  0
 31 32  1  0  0  0  0
 31 61  1  0  0  0  0
 31 62  1  0  0  0  0
 32 33  1  0  0  0  0
 32 37  1  0  0  0  0
 33 34  1  0  0  0  0
 33 63  1  0  0  0  0
 33 64  1  0  0  0  0
 34 35  1  0  0  0  0
 34 65  1  0  0  0  0
 34 66  1  0  0  0  0
 35 36  1  0  0  0  0
 36 37  1  0  0  0  0
 36 67  1  0  0  0  0
 36 68  1  0  0  0  0
 37 69  1  0  0  0  0
 37 70  1  0  0  0  0
 38 39  2  0  0  0  0
 38 44  1  0  0  0  0
 39 40  1  0  0  0  0
 39 41  1  0  0  0  0
 41 42  1  0  0  0  0
 42 43  1  0  0  0  0
 42 71  1  0  0  0  0
 42 72  1  0  0  0  0
 43 44  1  0  0  0  0
 43 73  1  0  0  0  0
 43 74  1  0  0  0  0
 45 46  1  0  0  0  0
 45 75  1  0  0  0  0
 46 47  1  0  0  0  0
M  END
$$$$
