CHEMBL1242288
 OpenBabel04072215363D

 42 45  0  0  1  0  0  0  0  0999 V2000
    2.8809   -1.2008    0.7101 C   0  0  0  0  0  0  0  0  0  0  0  0
    2.3708    0.0720    1.0811 O   0  0  0  0  0  0  0  0  0  0  0  0
    3.1469    1.1631    0.7924 C   0  0  0  0  0  0  0  0  0  0  0  0
    4.3724    1.1124    0.1290 C   0  0  0  0  0  0  0  0  0  0  0  0
    5.1054    2.2827   -0.0945 C   0  0  0  0  0  0  0  0  0  0  0  0
    4.6062    3.5334    0.2831 C   0  0  0  0  0  0  0  0  0  0  0  0
    5.3736    4.7590    0.0374 C   0  0  0  0  0  0  0  0  0  0  0  0
    5.3127    5.7648    0.9303 N   0  0  0  0  0  0  0  0  0  0  0  0
    6.1966    6.6778    0.4793 N   0  0  0  0  0  0  0  0  0  0  0  0
    6.5057    7.8724    1.2496 C   0  0  2  0  0  0  0  0  0  0  0  0
    6.3630    7.7115    2.7601 C   0  0  0  0  0  0  0  0  0  0  0  0
    4.9614    8.2188    3.0388 C   0  0  0  0  0  0  0  0  0  0  0  0
    4.7832    9.3562    2.1283 N   0  0  0  0  0  0  0  0  0  0  0  0
    5.5709    9.0401    0.9185 C   0  0  0  0  0  0  0  0  0  0  0  0
    6.7789    6.3221   -0.7069 C   0  0  0  0  0  0  0  0  0  0  0  0
    7.6878    7.0324   -1.3970 N   0  0  0  0  0  0  0  0  0  0  0  0
    8.0689    6.3892   -2.5107 C   0  0  0  0  0  0  0  0  0  0  0  0
    7.6306    5.2024   -2.9699 N   0  0  0  0  0  0  0  0  0  0  0  0
    6.7066    4.5294   -2.2526 C   0  0  0  0  0  0  0  0  0  0  0  0
    6.2763    3.3283   -2.7996 N   0  0  0  0  0  0  0  0  0  0  0  0
    6.2531    5.0845   -1.0449 C   0  0  0  0  0  0  0  0  0  0  0  0
    3.3783    3.5873    0.9565 C   0  0  0  0  0  0  0  0  0  0  0  0
    2.6641    2.4129    1.2141 C   0  0  0  0  0  0  0  0  0  0  0  0
    1.4791    2.4731    1.8974 O   0  0  0  0  0  0  0  0  0  0  0  0
    2.1797   -1.9620    1.0626 H   0  0  0  0  0  0  0  0  0  0  0  0
    3.8489   -1.3976    1.1848 H   0  0  0  0  0  0  0  0  0  0  0  0
    2.9515   -1.2903   -0.3798 H   0  0  0  0  0  0  0  0  0  0  0  0
    4.7988    0.1784   -0.2190 H   0  0  0  0  0  0  0  0  0  0  0  0
    6.0862    2.1877   -0.5541 H   0  0  0  0  0  0  0  0  0  0  0  0
    7.5464    8.1297    1.0177 H   0  0  0  0  0  0  0  0  0  0  0  0
    7.0923    8.3580    3.2653 H   0  0  0  0  0  0  0  0  0  0  0  0
    6.5201    6.6897    3.1191 H   0  0  0  0  0  0  0  0  0  0  0  0
    4.8414    8.5250    4.0825 H   0  0  0  0  0  0  0  0  0  0  0  0
    4.2078    7.4529    2.8267 H   0  0  0  0  0  0  0  0  0  0  0  0
    5.1617   10.1960    2.5669 H   0  0  0  0  0  0  0  0  0  0  0  0
    6.1613    9.9261    0.6549 H   0  0  0  0  0  0  0  0  0  0  0  0
    4.9022    8.8327    0.0766 H   0  0  0  0  0  0  0  0  0  0  0  0
    8.8190    6.8834   -3.1204 H   0  0  0  0  0  0  0  0  0  0  0  0
    6.5889    3.2515   -3.7617 H   0  0  0  0  0  0  0  0  0  0  0  0
    5.2984    3.1211   -2.6453 H   0  0  0  0  0  0  0  0  0  0  0  0
    2.9898    4.5484    1.2869 H   0  0  0  0  0  0  0  0  0  0  0  0
    1.3440    3.3812    2.2112 H   0  0  0  0  0  0  0  0  0  0  0  0
  1  2  1  0  0  0  0
  1 25  1  0  0  0  0
  1 26  1  0  0  0  0
  1 27  1  0  0  0  0
  2  3  1  0  0  0  0
  3  4  1  0  0  0  0
  3 23  2  0  0  0  0
  4  5  2  0  0  0  0
  4 28  1  0  0  0  0
  5  6  1  0  0  0  0
  5 29  1  0  0  0  0
  6  7  1  0  0  0  0
  6 22  2  0  0  0  0
  7  8  2  0  0  0  0
  7 21  1  0  0  0  0
  8  9  1  0  0  0  0
  9 10  1  0  0  0  0
  9 15  1  0  0  0  0
 10 11  1  0  0  0  0
 10 14  1  0  0  0  0
 10 30  1  6  0  0  0
 11 12  1  0  0  0  0
 11 31  1  0  0  0  0
 11 32  1  0  0  0  0
 12 13  1  0  0  0  0
 12 33  1  0  0  0  0
 12 34  1  0  0  0  0
 13 14  1  0  0  0  0
 13 35  1  0  0  0  0
 14 36  1  0  0  0  0
 14 37  1  0  0  0  0
 15 16  1  0  0  0  0
 15 21  2  0  0  0  0
 16 17  2  0  0  0  0
 17 18  1  0  0  0  0
 17 38  1  0  0  0  0
 18 19  2  0  0  0  0
 19 20  1  0  0  0  0
 19 21  1  0  0  0  0
 20 39  1  0  0  0  0
 20 40  1  0  0  0  0
 22 23  1  0  0  0  0
 22 41  1  0  0  0  0
 23 24  1  0  0  0  0
 24 42  1  0  0  0  0
M  END
$$$$
