CHEMBL3947826
 OpenBabel04072215373D

 56 60  0  0  0  0  0  0  0  0999 V2000
    0.5268    0.6409   -0.2598 C   0  0  0  0  0  0  0  0  0  0  0  0
    1.8877    0.2126   -0.3981 O   0  0  0  0  0  0  0  0  0  0  0  0
    2.7619    1.0755   -1.0288 C   0  0  0  0  0  0  0  0  0  0  0  0
    2.5868    2.4539   -0.8760 C   0  0  0  0  0  0  0  0  0  0  0  0
    3.4685    3.3364   -1.4624 C   0  0  0  0  0  0  0  0  0  0  0  0
    4.5931    2.8831   -2.1613 C   0  0  0  0  0  0  0  0  0  0  0  0
    4.8994    1.5136   -2.2925 C   0  0  0  0  0  0  0  0  0  0  0  0
    6.1536    1.2148   -2.9541 N   0  0  0  0  0  0  0  0  0  0  0  0
    6.6441   -0.2232   -2.8551 C   0  0  0  0  0  0  0  0  0  0  0  0
    6.1129   -1.1987   -3.9127 C   0  0  0  0  0  0  0  0  0  0  0  0
    6.4683   -2.6794   -3.8345 C   0  0  0  0  0  0  0  0  0  0  0  0
    7.0254   -1.8464   -4.9438 C   0  0  0  0  0  0  0  0  0  0  0  0
    7.0776    2.0356   -3.7653 C   0  0  0  0  0  0  0  0  0  0  0  0
    7.3475    1.4915   -4.9863 C   0  0  0  0  0  0  0  0  0  0  0  0
    8.5836    1.6671   -5.5366 C   0  0  0  0  0  0  0  0  0  0  0  0
    9.5171    2.5323   -5.0521 C   0  0  0  0  0  0  0  0  0  0  0  0
   10.7093    2.1850   -5.4480 N   0  0  0  0  0  0  0  0  0  0  0  0
   11.5965    3.1475   -5.7171 C   0  0  0  0  0  0  0  0  0  0  0  0
   11.2680    4.4780   -5.6337 C   0  0  0  0  0  0  0  0  0  0  0  0
   11.9600    5.1729   -6.8334 C   0  0  0  0  0  0  0  0  0  0  0  0
   11.8787    4.5812   -8.1568 C   0  0  0  0  0  0  0  0  0  0  0  0
   12.9243    4.7950   -8.9569 N   0  0  0  0  0  0  0  0  0  0  0  0
   13.7607    5.5157   -8.2016 N   0  0  0  0  0  0  0  0  0  0  0  0
   15.0606    5.8463   -8.7721 C   0  0  0  0  0  0  0  0  0  0  0  0
   13.2432    5.7241   -6.9077 C   0  0  0  0  0  0  0  0  0  0  0  0
   10.0949    4.8005   -4.9051 N   0  0  0  0  0  0  0  0  0  0  0  0
    9.1264    3.6958   -4.4346 C   0  0  0  0  0  0  0  0  0  0  0  0
    7.8575    3.2562   -3.5374 C   0  0  0  0  0  0  0  0  0  0  0  0
    3.8961    0.5767   -1.7525 C   0  0  0  0  0  0  0  0  0  0  0  0
    4.0532   -0.7815   -1.9896 O   0  0  0  0  0  0  0  0  0  0  0  0
    2.9656   -1.6919   -1.7711 C   0  0  0  0  0  0  0  0  0  0  0  0
   -0.0823   -0.2248    0.0184 H   0  0  0  0  0  0  0  0  0  0  0  0
    0.1307    1.0348   -1.2034 H   0  0  0  0  0  0  0  0  0  0  0  0
    0.4246    1.3766    0.5451 H   0  0  0  0  0  0  0  0  0  0  0  0
    1.7731    2.8600   -0.2939 H   0  0  0  0  0  0  0  0  0  0  0  0
    3.3167    4.4104   -1.3582 H   0  0  0  0  0  0  0  0  0  0  0  0
    5.2519    3.6206   -2.5922 H   0  0  0  0  0  0  0  0  0  0  0  0
    6.4412   -0.6235   -1.8547 H   0  0  0  0  0  0  0  0  0  0  0  0
    7.7427   -0.2333   -2.9128 H   0  0  0  0  0  0  0  0  0  0  0  0
    5.0952   -0.9772   -4.2129 H   0  0  0  0  0  0  0  0  0  0  0  0
    5.7169   -3.4165   -4.1042 H   0  0  0  0  0  0  0  0  0  0  0  0
    7.1648   -3.0319   -3.0819 H   0  0  0  0  0  0  0  0  0  0  0  0
    6.6354   -2.0223   -5.9419 H   0  0  0  0  0  0  0  0  0  0  0  0
    8.0877   -1.6314   -4.9234 H   0  0  0  0  0  0  0  0  0  0  0  0
    6.6985    0.7494   -5.4389 H   0  0  0  0  0  0  0  0  0  0  0  0
    8.8878    1.0532   -6.3858 H   0  0  0  0  0  0  0  0  0  0  0  0
   12.4275    2.7709   -6.2951 H   0  0  0  0  0  0  0  0  0  0  0  0
   11.1450    3.8530   -8.5139 H   0  0  0  0  0  0  0  0  0  0  0  0
   15.2203    5.2147   -9.6760 H   0  0  0  0  0  0  0  0  0  0  0  0
   15.8610    5.6521   -8.0789 H   0  0  0  0  0  0  0  0  0  0  0  0
   15.0418    6.8864   -9.1093 H   0  0  0  0  0  0  0  0  0  0  0  0
   13.8922    6.1884   -6.1760 H   0  0  0  0  0  0  0  0  0  0  0  0
    7.5986    3.9053   -2.7011 H   0  0  0  0  0  0  0  0  0  0  0  0
    3.1491   -2.6134   -2.3371 H   0  0  0  0  0  0  0  0  0  0  0  0
    1.9979   -1.3190   -2.1345 H   0  0  0  0  0  0  0  0  0  0  0  0
    2.9083   -1.9840   -0.7143 H   0  0  0  0  0  0  0  0  0  0  0  0
  1  2  1  0  0  0  0
  1 32  1  0  0  0  0
  1 33  1  0  0  0  0
  1 34  1  0  0  0  0
  2  3  1  0  0  0  0
  3  4  1  0  0  0  0
  3 29  2  0  0  0  0
  4  5  2  0  0  0  0
  4 35  1  0  0  0  0
  5  6  1  0  0  0  0
  5 36  1  0  0  0  0
  6  7  2  0  0  0  0
  6 37  1  0  0  0  0
  7  8  1  0  0  0  0
  7 29  1  0  0  0  0
  8  9  1  0  0  0  0
  8 13  1  0  0  0  0
  9 10  1  0  0  0  0
  9 38  1  0  0  0  0
  9 39  1  0  0  0  0
 10 11  1  0  0  0  0
 10 12  1  0  0  0  0
 10 40  1  0  0  0  0
 11 12  1  0  0  0  0
 11 41  1  0  0  0  0
 11 42  1  0  0  0  0
 12 43  1  0  0  0  0
 12 44  1  0  0  0  0
 13 14  1  0  0  0  0
 13 28  2  0  0  0  0
 14 15  2  0  0  0  0
 14 45  1  0  0  0  0
 15 16  1  0  0  0  0
 15 46  1  0  0  0  0
 16 17  1  0  0  0  0
 16 27  2  0  0  0  0
 17 18  2  0  0  0  0
 18 19  1  0  0  0  0
 18 47  1  0  0  0  0
 19 20  1  0  0  0  0
 19 26  2  0  0  0  0
 20 21  1  0  0  0  0
 20 25  2  0  0  0  0
 21 22  2  0  0  0  0
 21 48  1  0  0  0  0
 22 23  1  0  0  0  0
 23 24  1  0  0  0  0
 23 25  1  0  0  0  0
 24 49  1  0  0  0  0
 24 50  1  0  0  0  0
 24 51  1  0  0  0  0
 25 52  1  0  0  0  0
 26 27  1  0  0  0  0
 27 28  1  0  0  0  0
 28 53  1  0  0  0  0
 29 30  1  0  0  0  0
 30 31  1  0  0  0  0
 31 54  1  0  0  0  0
 31 55  1  0  0  0  0
 31 56  1  0  0  0  0
M  END
$$$$
