CHEMBL3935825
 OpenBabel04072215373D

 71 73  0  0  1  0  0  0  0  0999 V2000
    0.7488   -4.8609    1.4335 C   0  0  0  0  0  0  0  0  0  0  0  0
    2.1313   -4.7292    1.4515 O   0  0  0  0  0  0  0  0  0  0  0  0
    2.9223   -3.7087    1.0006 C   0  0  0  0  0  0  0  0  0  0  0  0
    2.4657   -2.6734    0.1492 C   0  0  0  0  0  0  0  0  0  0  0  0
    3.3233   -1.6114   -0.2097 C   0  0  0  0  0  0  0  0  0  0  0  0
    2.8747   -0.6125   -1.0323 O   0  0  0  0  0  0  0  0  0  0  0  0
    3.6353    0.4532   -1.4710 C   0  0  0  0  0  0  0  0  0  0  0  0
    4.6297   -1.6033    0.2972 C   0  0  0  0  0  0  0  0  0  0  0  0
    5.1281   -2.6483    1.1055 C   0  0  0  0  0  0  0  0  0  0  0  0
    6.4490   -2.5343    1.6702 N   0  0  0  0  0  0  0  0  0  0  0  0
    6.8690   -1.1265    2.0790 C   0  0  0  0  0  0  0  0  0  0  0  0
    5.9247   -0.2722    3.0407 C   0  0  0  0  0  0  0  0  0  0  0  0
    5.6373   -0.7331    4.5061 C   0  0  0  0  0  0  0  0  0  0  0  0
    4.8302    0.2543    5.2468 N   0  0  0  0  0  0  0  0  0  0  0  0
    4.4281    0.0612    6.5463 C   0  0  0  0  0  0  0  0  0  0  0  0
    4.7457   -0.9685    7.1251 O   0  0  0  0  0  0  0  0  0  0  0  0
    3.5785    1.1099    7.3154 C   0  0  3  0  0  0  0  0  0  0  0  0
    2.2415    1.3577    6.5759 C   0  0  0  0  0  0  0  0  0  0  0  0
    3.2736    0.6128    8.6037 O   0  0  0  0  0  0  0  0  0  0  0  0
    4.3478    2.4662    7.5137 C   0  0  0  0  0  0  0  0  0  0  0  0
    5.6066    2.4337    6.9434 F   0  0  0  0  0  0  0  0  0  0  0  0
    3.6656    3.5453    6.9673 F   0  0  0  0  0  0  0  0  0  0  0  0
    4.5157    2.7426    8.8652 F   0  0  0  0  0  0  0  0  0  0  0  0
    7.3727   -3.6437    2.0466 C   0  0  0  0  0  0  0  0  0  0  0  0
    7.8154   -3.4057    3.3188 C   0  0  0  0  0  0  0  0  0  0  0  0
    8.8848   -3.9723    3.8261 C   0  0  0  0  0  0  0  0  0  0  0  0
    9.5762   -4.9020    3.1633 C   0  0  0  0  0  0  0  0  0  0  0  0
   10.7252   -5.1378    3.7409 N   0  0  0  0  0  0  0  0  0  0  0  0
   11.5463   -6.0601    3.3723 C   0  0  0  0  0  0  0  0  0  0  0  0
   11.1775   -7.0353    2.4598 C   0  0  0  0  0  0  0  0  0  0  0  0
   12.1884   -8.2610    2.7854 C   0  0  0  0  0  0  0  0  0  0  0  0
   12.4953   -8.3950    4.1754 C   0  0  0  0  0  0  0  0  0  0  0  0
   13.4040   -9.3108    4.4238 N   0  0  0  0  0  0  0  0  0  0  0  0
   13.7340   -9.8804    3.2929 N   0  0  0  0  0  0  0  0  0  0  0  0
   14.7884  -10.9098    3.3593 C   0  0  0  0  0  0  0  0  0  0  0  0
   13.0113   -9.3284    2.2253 C   0  0  0  0  0  0  0  0  0  0  0  0
   10.0284   -6.6856    1.6430 N   0  0  0  0  0  0  0  0  0  0  0  0
    9.1916   -5.5351    1.9733 C   0  0  0  0  0  0  0  0  0  0  0  0
    8.0100   -4.8196    1.3166 C   0  0  0  0  0  0  0  0  0  0  0  0
    4.2652   -3.6967    1.4401 C   0  0  0  0  0  0  0  0  0  0  0  0
   -0.4246   -1.2612    1.1410 Cl  0  0  0  0  0  0  0  0  0  0  0  0
    0.4902   -5.8377    1.9016 H   0  0  0  0  0  0  0  0  0  0  0  0
    0.3391   -4.8616    0.4034 H   0  0  0  0  0  0  0  0  0  0  0  0
    0.2561   -4.0784    2.0514 H   0  0  0  0  0  0  0  0  0  0  0  0
    1.4533   -2.6872   -0.2323 H   0  0  0  0  0  0  0  0  0  0  0  0
    3.0501    1.0793   -2.1971 H   0  0  0  0  0  0  0  0  0  0  0  0
    4.5406    0.1036   -2.0084 H   0  0  0  0  0  0  0  0  0  0  0  0
    3.9471    1.1206   -0.6333 H   0  0  0  0  0  0  0  0  0  0  0  0
    5.2563   -0.7657    0.0474 H   0  0  0  0  0  0  0  0  0  0  0  0
    7.0167   -0.5091    1.1631 H   0  0  0  0  0  0  0  0  0  0  0  0
    7.8882   -1.0964    2.5153 H   0  0  0  0  0  0  0  0  0  0  0  0
    4.9484   -0.0893    2.5493 H   0  0  0  0  0  0  0  0  0  0  0  0
    6.4204    0.7178    3.1485 H   0  0  0  0  0  0  0  0  0  0  0  0
    6.5970   -0.8681    5.0533 H   0  0  0  0  0  0  0  0  0  0  0  0
    5.0917   -1.6999    4.4803 H   0  0  0  0  0  0  0  0  0  0  0  0
    4.5574    1.1313    4.7761 H   0  0  0  0  0  0  0  0  0  0  0  0
    1.6756    0.4097    6.4600 H   0  0  0  0  0  0  0  0  0  0  0  0
    2.4117    1.7917    5.5693 H   0  0  0  0  0  0  0  0  0  0  0  0
    1.6025    2.0629    7.1562 H   0  0  0  0  0  0  0  0  0  0  0  0
    2.7098   -0.1997    8.5087 H   0  0  0  0  0  0  0  0  0  0  0  0
    7.3987   -2.6418    3.9394 H   0  0  0  0  0  0  0  0  0  0  0  0
    9.2459   -3.6169    4.7684 H   0  0  0  0  0  0  0  0  0  0  0  0
   12.4506   -6.0634    3.9471 H   0  0  0  0  0  0  0  0  0  0  0  0
   12.0986   -7.8217    5.0041 H   0  0  0  0  0  0  0  0  0  0  0  0
   15.1622  -10.9989    4.4182 H   0  0  0  0  0  0  0  0  0  0  0  0
   15.6884  -10.6440    2.7636 H   0  0  0  0  0  0  0  0  0  0  0  0
   14.3954  -11.9084    3.0965 H   0  0  0  0  0  0  0  0  0  0  0  0
   13.1285   -9.6297    1.2156 H   0  0  0  0  0  0  0  0  0  0  0  0
    7.6717   -5.0837    0.3099 H   0  0  0  0  0  0  0  0  0  0  0  0
    4.6035   -4.4722    2.1067 H   0  0  0  0  0  0  0  0  0  0  0  0
    0.4168   -0.6669    0.2261 H   0  0  0  0  0  0  0  0  0  0  0  0
  1  2  1  0  0  0  0
  1 42  1  0  0  0  0
  1 43  1  0  0  0  0
  1 44  1  0  0  0  0
  2  3  1  0  0  0  0
  3  4  1  0  0  0  0
  3 40  2  0  0  0  0
  4  5  2  0  0  0  0
  4 45  1  0  0  0  0
  5  6  1  0  0  0  0
  5  8  1  0  0  0  0
  6  7  1  0  0  0  0
  7 46  1  0  0  0  0
  7 47  1  0  0  0  0
  7 48  1  0  0  0  0
  8  9  2  0  0  0  0
  8 49  1  0  0  0  0
  9 10  1  0  0  0  0
  9 40  1  0  0  0  0
 10 11  1  0  0  0  0
 10 24  1  0  0  0  0
 11 12  1  0  0  0  0
 11 50  1  0  0  0  0
 11 51  1  0  0  0  0
 12 13  1  0  0  0  0
 12 52  1  0  0  0  0
 12 53  1  0  0  0  0
 13 14  1  0  0  0  0
 13 54  1  0  0  0  0
 13 55  1  0  0  0  0
 14 15  1  0  0  0  0
 14 56  1  0  0  0  0
 15 16  2  0  0  0  0
 15 17  1  0  0  0  0
 17 18  1  0  0  0  0
 17 19  1  0  0  0  0
 17 20  1  0  0  0  0
 18 57  1  0  0  0  0
 18 58  1  0  0  0  0
 18 59  1  0  0  0  0
 19 60  1  0  0  0  0
 20 21  1  0  0  0  0
 20 22  1  0  0  0  0
 20 23  1  0  0  0  0
 24 25  1  0  0  0  0
 24 39  2  0  0  0  0
 25 26  2  0  0  0  0
 25 61  1  0  0  0  0
 26 27  1  0  0  0  0
 26 62  1  0  0  0  0
 27 28  1  0  0  0  0
 27 38  2  0  0  0  0
 28 29  2  0  0  0  0
 29 30  1  0  0  0  0
 29 63  1  0  0  0  0
 30 31  1  0  0  0  0
 30 37  2  0  0  0  0
 31 32  1  0  0  0  0
 31 36  2  0  0  0  0
 32 33  2  0  0  0  0
 32 64  1  0  0  0  0
 33 34  1  0  0  0  0
 34 35  1  0  0  0  0
 34 36  1  0  0  0  0
 35 65  1  0  0  0  0
 35 66  1  0  0  0  0
 35 67  1  0  0  0  0
 36 68  1  0  0  0  0
 37 38  1  0  0  0  0
 38 39  1  0  0  0  0
 39 69  1  0  0  0  0
 40 70  1  0  0  0  0
 41 71  1  0  0  0  0
M  END
$$$$
