CHEMBL4747900
 OpenBabel04072215383D

 69 74  0  0  0  0  0  0  0  0999 V2000
    4.3106    2.8337   16.0415 C   0  0  0  0  0  0  0  0  0  0  0  0
    5.4022    1.7757   15.8870 C   0  0  0  0  0  0  0  0  0  0  0  0
    6.6814    2.1993   16.6095 C   0  0  0  0  0  0  0  0  0  0  0  0
    4.9344    0.5547   16.4783 O   0  0  0  0  0  0  0  0  0  0  0  0
    5.6858    1.4877   14.4059 C   0  0  0  0  0  0  0  0  0  0  0  0
    6.1554    2.6512   13.7156 O   0  0  0  0  0  0  0  0  0  0  0  0
    6.4790    2.4531   12.3983 C   0  0  0  0  0  0  0  0  0  0  0  0
    6.4402    1.2240   11.7550 C   0  0  0  0  0  0  0  0  0  0  0  0
    6.7848    1.1348   10.4155 C   0  0  0  0  0  0  0  0  0  0  0  0
    7.0745    2.2871    9.6580 C   0  0  0  0  0  0  0  0  0  0  0  0
    7.2389    2.2854    8.2561 C   0  0  0  0  0  0  0  0  0  0  0  0
    7.0952    1.1774    7.4469 O   0  0  0  0  0  0  0  0  0  0  0  0
    5.9622    0.3937    7.5247 C   0  0  0  0  0  0  0  0  0  0  0  0
    4.7503    0.7645    8.1150 C   0  0  0  0  0  0  0  0  0  0  0  0
    3.7056   -0.1630    8.2250 C   0  0  0  0  0  0  0  0  0  0  0  0
    3.8143   -1.4435    7.6679 C   0  0  0  0  0  0  0  0  0  0  0  0
    2.7007   -2.3061    7.6945 N   0  0  0  0  0  0  0  0  0  0  0  0
    2.2399   -3.1341    6.6430 C   0  0  0  0  0  0  0  0  0  0  0  0
    3.0140   -3.2621    5.5379 N   0  0  0  0  0  0  0  0  0  0  0  0
    2.6275   -4.0908    4.5475 C   0  0  0  0  0  0  0  0  0  0  0  0
    1.4693   -4.8352    4.5890 C   0  0  0  0  0  0  0  0  0  0  0  0
    0.6509   -4.7063    5.7050 C   0  0  0  0  0  0  0  0  0  0  0  0
   -0.5189   -5.4711    5.8136 N   0  0  0  0  0  0  0  0  0  0  0  0
   -1.3433   -5.3418    6.8962 C   0  0  0  0  0  0  0  0  0  0  0  0
   -1.1186   -4.5319    7.9426 C   0  0  0  0  0  0  0  0  0  0  0  0
   -2.1023   -4.4453    9.0262 C   0  0  0  0  0  0  0  0  0  0  0  0
   -2.0499   -5.3251   10.1144 C   0  0  0  0  0  0  0  0  0  0  0  0
   -3.0207   -5.2621   11.1173 C   0  0  0  0  0  0  0  0  0  0  0  0
   -4.0500   -4.3252   11.0359 C   0  0  0  0  0  0  0  0  0  0  0  0
   -4.1101   -3.4453    9.9552 C   0  0  0  0  0  0  0  0  0  0  0  0
   -3.1391   -3.5068    8.9524 C   0  0  0  0  0  0  0  0  0  0  0  0
    0.1168   -3.6832    7.9074 C   0  0  0  0  0  0  0  0  0  0  0  0
    0.3392   -2.8386    8.7705 O   0  0  0  0  0  0  0  0  0  0  0  0
    1.0418   -3.8500    6.7522 C   0  0  0  0  0  0  0  0  0  0  0  0
    5.0225   -1.7945    7.0561 C   0  0  0  0  0  0  0  0  0  0  0  0
    6.0759   -0.8870    6.9865 C   0  0  0  0  0  0  0  0  0  0  0  0
    7.2211   -1.2721    6.4017 F   0  0  0  0  0  0  0  0  0  0  0  0
    7.6213    3.4469    7.5958 C   0  0  0  0  0  0  0  0  0  0  0  0
    7.7582    4.5953    8.3446 C   0  0  0  0  0  0  0  0  0  0  0  0
    7.5213    4.6592    9.6732 N   0  0  0  0  0  0  0  0  0  0  0  0
    7.1742    3.5291   10.3188 C   0  0  0  0  0  0  0  0  0  0  0  0
    6.8800    3.5843   11.6787 C   0  0  0  0  0  0  0  0  0  0  0  0
    4.0588    2.9827   17.0972 H   0  0  0  0  0  0  0  0  0  0  0  0
    3.3873    2.5106   15.5464 H   0  0  0  0  0  0  0  0  0  0  0  0
    4.6117    3.7967   15.6176 H   0  0  0  0  0  0  0  0  0  0  0  0
    6.4982    2.3334   17.6811 H   0  0  0  0  0  0  0  0  0  0  0  0
    7.0890    3.1318   16.2074 H   0  0  0  0  0  0  0  0  0  0  0  0
    7.4477    1.4197   16.5231 H   0  0  0  0  0  0  0  0  0  0  0  0
    4.8300    0.7049   17.4335 H   0  0  0  0  0  0  0  0  0  0  0  0
    4.7647    1.1186   13.9333 H   0  0  0  0  0  0  0  0  0  0  0  0
    6.4391    0.6898   14.3577 H   0  0  0  0  0  0  0  0  0  0  0  0
    6.1341    0.3083   12.2492 H   0  0  0  0  0  0  0  0  0  0  0  0
    6.7725    0.1487    9.9598 H   0  0  0  0  0  0  0  0  0  0  0  0
    4.6031    1.7542    8.5373 H   0  0  0  0  0  0  0  0  0  0  0  0
    2.7934    0.1347    8.7380 H   0  0  0  0  0  0  0  0  0  0  0  0
    1.9162   -1.9664    8.2567 H   0  0  0  0  0  0  0  0  0  0  0  0
    3.3056   -4.1429    3.7004 H   0  0  0  0  0  0  0  0  0  0  0  0
    1.2153   -5.4895    3.7638 H   0  0  0  0  0  0  0  0  0  0  0  0
   -0.8617   -5.9704    4.9997 H   0  0  0  0  0  0  0  0  0  0  0  0
   -2.2365   -5.9602    6.8358 H   0  0  0  0  0  0  0  0  0  0  0  0
   -1.2534   -6.0615   10.1915 H   0  0  0  0  0  0  0  0  0  0  0  0
   -2.9737   -5.9438   11.9632 H   0  0  0  0  0  0  0  0  0  0  0  0
   -4.8024   -4.2764   11.8184 H   0  0  0  0  0  0  0  0  0  0  0  0
   -4.9086   -2.7134    9.8911 H   0  0  0  0  0  0  0  0  0  0  0  0
   -3.1958   -2.8150    8.1147 H   0  0  0  0  0  0  0  0  0  0  0  0
    5.1652   -2.7813    6.6276 H   0  0  0  0  0  0  0  0  0  0  0  0
    7.7998    3.4526    6.5268 H   0  0  0  0  0  0  0  0  0  0  0  0
    8.0599    5.5314    7.8824 H   0  0  0  0  0  0  0  0  0  0  0  0
    6.9431    4.5449   12.1850 H   0  0  0  0  0  0  0  0  0  0  0  0
  1  2  1  0  0  0  0
  1 43  1  0  0  0  0
  1 44  1  0  0  0  0
  1 45  1  0  0  0  0
  2  3  1  0  0  0  0
  2  4  1  0  0  0  0
  2  5  1  0  0  0  0
  3 46  1  0  0  0  0
  3 47  1  0  0  0  0
  3 48  1  0  0  0  0
  4 49  1  0  0  0  0
  5  6  1  0  0  0  0
  5 50  1  0  0  0  0
  5 51  1  0  0  0  0
  6  7  1  0  0  0  0
  7  8  1  0  0  0  0
  7 42  2  0  0  0  0
  8  9  2  0  0  0  0
  8 52  1  0  0  0  0
  9 10  1  0  0  0  0
  9 53  1  0  0  0  0
 10 11  1  0  0  0  0
 10 41  2  0  0  0  0
 11 12  1  0  0  0  0
 11 38  2  0  0  0  0
 12 13  1  0  0  0  0
 13 14  1  0  0  0  0
 13 36  2  0  0  0  0
 14 15  2  0  0  0  0
 14 54  1  0  0  0  0
 15 16  1  0  0  0  0
 15 55  1  0  0  0  0
 16 17  1  0  0  0  0
 16 35  2  0  0  0  0
 17 18  1  0  0  0  0
 17 56  1  0  0  0  0
 18 19  1  0  0  0  0
 18 34  2  0  0  0  0
 19 20  2  0  0  0  0
 20 21  1  0  0  0  0
 20 57  1  0  0  0  0
 21 22  2  0  0  0  0
 21 58  1  0  0  0  0
 22 23  1  0  0  0  0
 22 34  1  0  0  0  0
 23 24  1  0  0  0  0
 23 59  1  0  0  0  0
 24 25  2  0  0  0  0
 24 60  1  0  0  0  0
 25 26  1  0  0  0  0
 25 32  1  0  0  0  0
 26 27  1  0  0  0  0
 26 31  2  0  0  0  0
 27 28  2  0  0  0  0
 27 61  1  0  0  0  0
 28 29  1  0  0  0  0
 28 62  1  0  0  0  0
 29 30  2  0  0  0  0
 29 63  1  0  0  0  0
 30 31  1  0  0  0  0
 30 64  1  0  0  0  0
 31 65  1  0  0  0  0
 32 33  2  0  0  0  0
 32 34  1  0  0  0  0
 35 36  1  0  0  0  0
 35 66  1  0  0  0  0
 36 37  1  0  0  0  0
 38 39  1  0  0  0  0
 38 67  1  0  0  0  0
 39 40  2  0  0  0  0
 39 68  1  0  0  0  0
 40 41  1  0  0  0  0
 41 42  1  0  0  0  0
 42 69  1  0  0  0  0
M  END
$$$$
