CHEMBL1973211
 OpenBabel04072215363D

 62 66  0  0  0  0  0  0  0  0999 V2000
    2.3932   -0.0481   -0.4380 C   0  0  0  0  0  0  0  0  0  0  0  0
    0.8894    0.0081   -0.5228 C   0  0  0  0  0  0  0  0  0  0  0  0
    0.2787    1.2505   -0.7598 C   0  0  0  0  0  0  0  0  0  0  0  0
   -1.1052    1.3280   -0.8458 C   0  0  0  0  0  0  0  0  0  0  0  0
   -1.8841    0.1858   -0.6933 C   0  0  0  0  0  0  0  0  0  0  0  0
   -1.3047   -1.0670   -0.4588 C   0  0  0  0  0  0  0  0  0  0  0  0
   -2.0785   -2.2548   -0.2964 N   0  0  0  0  0  0  0  0  0  0  0  0
   -3.4642   -2.3268   -0.3978 C   0  0  0  0  0  0  0  0  0  0  0  0
   -4.2044   -1.3882   -0.6623 O   0  0  0  0  0  0  0  0  0  0  0  0
   -3.9546   -3.6023   -0.1278 N   0  0  0  0  0  0  0  0  0  0  0  0
   -5.3580   -3.8113   -0.2009 C   0  0  0  0  0  0  0  0  0  0  0  0
   -6.0825   -3.4288   -1.3317 C   0  0  0  0  0  0  0  0  0  0  0  0
   -7.4803   -3.5048   -1.3424 C   0  0  0  0  0  0  0  0  0  0  0  0
   -8.1893   -3.9976   -0.2353 C   0  0  0  0  0  0  0  0  0  0  0  0
   -9.6695   -3.9821   -0.2237 C   0  0  0  0  0  0  0  0  0  0  0  0
  -10.3463   -4.2140   -1.4074 C   0  0  0  0  0  0  0  0  0  0  0  0
  -12.0301   -4.1253   -1.2634 S   0  0  0  0  0  0  0  0  0  0  0  0
  -11.9503   -3.7620    0.4195 C   0  0  0  0  0  0  0  0  0  0  0  0
  -13.0377   -3.5315    1.2826 C   0  0  0  0  0  0  0  0  0  0  0  0
  -14.3938   -3.5868    0.8248 C   0  0  0  0  0  0  0  0  0  0  0  0
  -15.6313   -3.6553    0.4201 C   0  0  0  0  0  0  0  0  0  0  0  0
  -17.0740   -3.7352   -0.0517 C   0  0  0  0  0  0  0  0  0  0  0  0
  -17.5693   -2.4771   -0.6339 N   0  0  0  0  0  0  0  0  0  0  0  0
  -17.5984   -1.3446    0.3037 C   0  0  0  0  0  0  0  0  0  0  0  0
  -18.9405   -1.4310    1.0030 C   0  0  0  0  0  0  0  0  0  0  0  0
  -19.8687   -1.8909   -0.1024 C   0  0  0  0  0  0  0  0  0  0  0  0
  -18.9662   -2.6276   -1.0932 C   0  0  0  0  0  0  0  0  0  0  0  0
  -12.7273   -3.2539    2.5948 C   0  0  0  0  0  0  0  0  0  0  0  0
  -11.4751   -3.1864    3.0762 N   0  0  0  0  0  0  0  0  0  0  0  0
  -10.4198   -3.3901    2.2578 C   0  0  0  0  0  0  0  0  0  0  0  0
   -9.1903   -3.2414    2.8861 N   0  0  0  0  0  0  0  0  0  0  0  0
  -10.6137   -3.7064    0.8776 C   0  0  0  0  0  0  0  0  0  0  0  0
   -7.4375   -4.4809    0.8445 C   0  0  0  0  0  0  0  0  0  0  0  0
   -6.0377   -4.3596    0.8820 C   0  0  0  0  0  0  0  0  0  0  0  0
    0.0985   -1.1400   -0.3723 C   0  0  0  0  0  0  0  0  0  0  0  0
    2.8402    0.9437   -0.5596 H   0  0  0  0  0  0  0  0  0  0  0  0
    2.7925   -0.6879   -1.2338 H   0  0  0  0  0  0  0  0  0  0  0  0
    2.7088   -0.4337    0.5374 H   0  0  0  0  0  0  0  0  0  0  0  0
    0.8587    2.1537   -0.8894 H   0  0  0  0  0  0  0  0  0  0  0  0
   -1.5859    2.2831   -1.0310 H   0  0  0  0  0  0  0  0  0  0  0  0
   -2.9538    0.3281   -0.7653 H   0  0  0  0  0  0  0  0  0  0  0  0
   -1.5803   -3.1218   -0.1880 H   0  0  0  0  0  0  0  0  0  0  0  0
   -3.4679   -4.0923    0.6068 H   0  0  0  0  0  0  0  0  0  0  0  0
   -5.5697   -3.0351   -2.2067 H   0  0  0  0  0  0  0  0  0  0  0  0
   -7.9962   -3.1441   -2.2295 H   0  0  0  0  0  0  0  0  0  0  0  0
   -9.9328   -4.4325   -2.3826 H   0  0  0  0  0  0  0  0  0  0  0  0
  -17.6992   -4.0710    0.7847 H   0  0  0  0  0  0  0  0  0  0  0  0
  -17.1086   -4.5174   -0.8207 H   0  0  0  0  0  0  0  0  0  0  0  0
  -17.5609   -0.4176   -0.2847 H   0  0  0  0  0  0  0  0  0  0  0  0
  -16.7601   -1.3042    1.0045 H   0  0  0  0  0  0  0  0  0  0  0  0
  -19.2548   -0.4730    1.4304 H   0  0  0  0  0  0  0  0  0  0  0  0
  -18.9137   -2.1718    1.8101 H   0  0  0  0  0  0  0  0  0  0  0  0
  -20.3316   -1.0247   -0.5900 H   0  0  0  0  0  0  0  0  0  0  0  0
  -20.6709   -2.5261    0.2871 H   0  0  0  0  0  0  0  0  0  0  0  0
  -19.0664   -2.1669   -2.0827 H   0  0  0  0  0  0  0  0  0  0  0  0
  -19.2778   -3.6732   -1.2022 H   0  0  0  0  0  0  0  0  0  0  0  0
  -13.5073   -3.0649    3.3269 H   0  0  0  0  0  0  0  0  0  0  0  0
   -9.3219   -2.8203    3.7988 H   0  0  0  0  0  0  0  0  0  0  0  0
   -8.4916   -2.7932    2.3073 H   0  0  0  0  0  0  0  0  0  0  0  0
   -7.9305   -4.9265    1.7051 H   0  0  0  0  0  0  0  0  0  0  0  0
   -5.5137   -4.6268    1.7953 H   0  0  0  0  0  0  0  0  0  0  0  0
    0.5817   -2.0918   -0.1911 H   0  0  0  0  0  0  0  0  0  0  0  0
  1  2  1  0  0  0  0
  1 36  1  0  0  0  0
  1 37  1  0  0  0  0
  1 38  1  0  0  0  0
  2  3  1  0  0  0  0
  2 35  2  0  0  0  0
  3  4  2  0  0  0  0
  3 39  1  0  0  0  0
  4  5  1  0  0  0  0
  4 40  1  0  0  0  0
  5  6  2  0  0  0  0
  5 41  1  0  0  0  0
  6  7  1  0  0  0  0
  6 35  1  0  0  0  0
  7  8  1  0  0  0  0
  7 42  1  0  0  0  0
  8  9  2  0  0  0  0
  8 10  1  0  0  0  0
 10 11  1  0  0  0  0
 10 43  1  0  0  0  0
 11 12  1  0  0  0  0
 11 34  2  0  0  0  0
 12 13  2  0  0  0  0
 12 44  1  0  0  0  0
 13 14  1  0  0  0  0
 13 45  1  0  0  0  0
 14 15  1  0  0  0  0
 14 33  2  0  0  0  0
 15 16  2  0  0  0  0
 15 32  1  0  0  0  0
 16 17  1  0  0  0  0
 16 46  1  0  0  0  0
 17 18  1  0  0  0  0
 18 19  1  0  0  0  0
 18 32  2  0  0  0  0
 19 20  1  0  0  0  0
 19 28  2  0  0  0  0
 20 21  3  0  0  0  0
 21 22  1  0  0  0  0
 22 23  1  0  0  0  0
 22 47  1  0  0  0  0
 22 48  1  0  0  0  0
 23 24  1  0  0  0  0
 23 27  1  0  0  0  0
 24 25  1  0  0  0  0
 24 49  1  0  0  0  0
 24 50  1  0  0  0  0
 25 26  1  0  0  0  0
 25 51  1  0  0  0  0
 25 52  1  0  0  0  0
 26 27  1  0  0  0  0
 26 53  1  0  0  0  0
 26 54  1  0  0  0  0
 27 55  1  0  0  0  0
 27 56  1  0  0  0  0
 28 29  1  0  0  0  0
 28 57  1  0  0  0  0
 29 30  2  0  0  0  0
 30 31  1  0  0  0  0
 30 32  1  0  0  0  0
 31 58  1  0  0  0  0
 31 59  1  0  0  0  0
 33 34  1  0  0  0  0
 33 60  1  0  0  0  0
 34 61  1  0  0  0  0
 35 62  1  0  0  0  0
M  END
$$$$
