CHEMBL3690446
 OpenBabel04072215373D

 46 49  0  0  0  0  0  0  0  0999 V2000
    2.5286    1.4377   -0.5766 O   0  0  0  0  0  0  0  0  0  0  0  0
    2.2381    0.5415    0.2036 C   0  0  0  0  0  0  0  0  0  0  0  0
    0.9353    0.1072    0.3407 N   0  0  0  0  0  0  0  0  0  0  0  0
   -0.1292    0.8466   -0.3498 C   0  0  0  0  0  0  0  0  0  0  0  0
   -0.6331    2.0963    0.3856 C   0  0  0  0  0  0  0  0  0  0  0  0
   -0.0451    2.2399    1.5967 F   0  0  0  0  0  0  0  0  0  0  0  0
   -0.4285    3.2275   -0.3185 F   0  0  0  0  0  0  0  0  0  0  0  0
   -1.9667    1.9929    0.6114 F   0  0  0  0  0  0  0  0  0  0  0  0
    3.0920   -0.1659    1.0199 N   0  0  0  0  0  0  0  0  0  0  0  0
    4.4939   -0.0160    1.1257 C   0  0  0  0  0  0  0  0  0  0  0  0
    5.2249    0.8980    0.3674 C   0  0  0  0  0  0  0  0  0  0  0  0
    6.6127    0.9370    0.4587 C   0  0  0  0  0  0  0  0  0  0  0  0
    7.2816    0.0830    1.3312 C   0  0  0  0  0  0  0  0  0  0  0  0
    6.5723   -0.7657    2.1880 C   0  0  0  0  0  0  0  0  0  0  0  0
    7.2551   -1.5527    3.2259 C   0  0  0  0  0  0  0  0  0  0  0  0
    6.9676   -2.8213    3.7091 C   0  0  0  0  0  0  0  0  0  0  0  0
    7.8058   -3.1961    4.7241 N   0  0  0  0  0  0  0  0  0  0  0  0
    8.6181   -2.1771    4.8937 C   0  0  0  0  0  0  0  0  0  0  0  0
    9.6851   -1.9881    5.8225 C   0  0  0  0  0  0  0  0  0  0  0  0
   10.4027   -0.8413    5.8191 C   0  0  0  0  0  0  0  0  0  0  0  0
   11.4753   -0.6788    6.8127 C   0  0  0  0  0  0  0  0  0  0  0  0
   12.7751   -1.0954    6.5279 C   0  0  0  0  0  0  0  0  0  0  0  0
   13.7512   -0.8916    7.4880 C   0  0  0  0  0  0  0  0  0  0  0  0
   13.5178   -0.3063    8.6834 N   0  0  0  0  0  0  0  0  0  0  0  0
   12.2522    0.0953    8.9299 C   0  0  0  0  0  0  0  0  0  0  0  0
   11.2085   -0.0655    8.0368 C   0  0  0  0  0  0  0  0  0  0  0  0
   10.0793    0.2200    4.8700 C   0  0  0  0  0  0  0  0  0  0  0  0
    9.0536    0.0622    4.0205 C   0  0  0  0  0  0  0  0  0  0  0  0
    8.3331   -1.1342    4.0118 N   0  0  0  0  0  0  0  0  0  0  0  0
    5.1758   -0.8369    2.0426 C   0  0  0  0  0  0  0  0  0  0  0  0
    0.6929   -0.2726    1.2447 H   0  0  0  0  0  0  0  0  0  0  0  0
   -0.9536    0.1390   -0.4819 H   0  0  0  0  0  0  0  0  0  0  0  0
    0.2208    1.1275   -1.3499 H   0  0  0  0  0  0  0  0  0  0  0  0
    2.6821   -0.9237    1.5455 H   0  0  0  0  0  0  0  0  0  0  0  0
    4.7465    1.5842   -0.3224 H   0  0  0  0  0  0  0  0  0  0  0  0
    7.1726    1.6357   -0.1577 H   0  0  0  0  0  0  0  0  0  0  0  0
    8.3676    0.1045    1.3322 H   0  0  0  0  0  0  0  0  0  0  0  0
    6.1856   -3.4906    3.3727 H   0  0  0  0  0  0  0  0  0  0  0  0
    9.8819   -2.7887    6.5289 H   0  0  0  0  0  0  0  0  0  0  0  0
   13.0268   -1.5641    5.5828 H   0  0  0  0  0  0  0  0  0  0  0  0
   14.7785   -1.2014    7.3174 H   0  0  0  0  0  0  0  0  0  0  0  0
   12.0952    0.5651    9.8970 H   0  0  0  0  0  0  0  0  0  0  0  0
   10.2130    0.2872    8.2896 H   0  0  0  0  0  0  0  0  0  0  0  0
   10.6692    1.1315    4.8789 H   0  0  0  0  0  0  0  0  0  0  0  0
    8.7709    0.8474    3.3351 H   0  0  0  0  0  0  0  0  0  0  0  0
    4.6097   -1.5249    2.6667 H   0  0  0  0  0  0  0  0  0  0  0  0
  1  2  2  0  0  0  0
  2  3  1  0  0  0  0
  2  9  1  0  0  0  0
  3  4  1  0  0  0  0
  3 31  1  0  0  0  0
  4  5  1  0  0  0  0
  4 32  1  0  0  0  0
  4 33  1  0  0  0  0
  5  6  1  0  0  0  0
  5  7  1  0  0  0  0
  5  8  1  0  0  0  0
  9 10  1  0  0  0  0
  9 34  1  0  0  0  0
 10 11  1  0  0  0  0
 10 30  2  0  0  0  0
 11 12  2  0  0  0  0
 11 35  1  0  0  0  0
 12 13  1  0  0  0  0
 12 36  1  0  0  0  0
 13 14  2  0  0  0  0
 13 37  1  0  0  0  0
 14 15  1  0  0  0  0
 14 30  1  0  0  0  0
 15 16  2  0  0  0  0
 15 29  1  0  0  0  0
 16 17  1  0  0  0  0
 16 38  1  0  0  0  0
 17 18  2  0  0  0  0
 18 19  1  0  0  0  0
 18 29  1  0  0  0  0
 19 20  2  0  0  0  0
 19 39  1  0  0  0  0
 20 21  1  0  0  0  0
 20 27  1  0  0  0  0
 21 22  1  0  0  0  0
 21 26  2  0  0  0  0
 22 23  2  0  0  0  0
 22 40  1  0  0  0  0
 23 24  1  0  0  0  0
 23 41  1  0  0  0  0
 24 25  2  0  0  0  0
 25 26  1  0  0  0  0
 25 42  1  0  0  0  0
 26 43  1  0  0  0  0
 27 28  2  0  0  0  0
 27 44  1  0  0  0  0
 28 29  1  0  0  0  0
 28 45  1  0  0  0  0
 30 46  1  0  0  0  0
M  END
$$$$
