CHEMBL146697
 OpenBabel04072215363D

 43 45  0  0  0  0  0  0  0  0999 V2000
    2.1560   -0.3691   -1.2478 C   0  0  0  0  0  0  0  0  0  0  0  0
    0.8294   -0.1677   -0.6022 C   0  0  0  0  0  0  0  0  0  0  0  0
    0.1281    1.0619   -0.3544 C   0  0  0  0  0  0  0  0  0  0  0  0
    0.5812    2.4695   -0.6216 C   0  0  0  0  0  0  0  0  0  0  0  0
    0.7396    2.7846   -2.1034 C   0  0  0  0  0  0  0  0  0  0  0  0
    1.1514    4.2180   -2.3275 C   0  0  0  0  0  0  0  0  0  0  0  0
    1.2958    5.0638   -1.4597 O   0  0  0  0  0  0  0  0  0  0  0  0
    1.3559    4.4858   -3.6405 O   0  0  0  0  0  0  0  0  0  0  0  0
   -1.0517    0.7172    0.2811 C   0  0  0  0  0  0  0  0  0  0  0  0
   -1.0706   -0.6396    0.4735 N   0  0  0  0  0  0  0  0  0  0  0  0
    0.0805   -1.1855   -0.0289 C   0  0  0  0  0  0  0  0  0  0  0  0
    0.3569   -2.5621    0.1675 C   0  0  0  0  0  0  0  0  0  0  0  0
    0.9946   -2.9945    1.2686 C   0  0  0  0  0  0  0  0  0  0  0  0
    1.3296   -2.1667    2.4936 C   0  0  0  0  0  0  0  0  0  0  0  0
    1.0107   -1.0278    2.7709 O   0  0  0  0  0  0  0  0  0  0  0  0
    2.0572   -3.0142    3.3089 N   0  0  0  0  0  0  0  0  0  0  0  0
    2.1926   -4.2755    2.7469 C   0  0  0  0  0  0  0  0  0  0  0  0
    2.8657   -5.3394    3.3124 C   0  0  0  0  0  0  0  0  0  0  0  0
    2.9107   -6.5245    2.5795 C   0  0  0  0  0  0  0  0  0  0  0  0
    2.2797   -6.6038    1.3203 C   0  0  0  0  0  0  0  0  0  0  0  0
    2.4102   -8.1243    0.4177 S   0  0  0  0  0  0  0  0  0  0  0  0
    1.0870   -8.9747    1.0017 N   0  0  0  0  0  0  0  0  0  0  0  0
    2.1439   -7.8696   -0.9772 O   0  0  0  0  0  0  0  0  0  0  0  0
    3.5786   -8.8435    0.8697 O   0  0  0  0  0  0  0  0  0  0  0  0
    1.6035   -5.5062    0.7555 C   0  0  0  0  0  0  0  0  0  0  0  0
    1.5565   -4.3383    1.4991 C   0  0  0  0  0  0  0  0  0  0  0  0
    2.6136    0.5661   -1.5726 H   0  0  0  0  0  0  0  0  0  0  0  0
    2.0455   -1.0168   -2.1249 H   0  0  0  0  0  0  0  0  0  0  0  0
    2.8501   -0.8518   -0.5524 H   0  0  0  0  0  0  0  0  0  0  0  0
    1.5254    2.6458   -0.0898 H   0  0  0  0  0  0  0  0  0  0  0  0
   -0.1433    3.1687   -0.1810 H   0  0  0  0  0  0  0  0  0  0  0  0
   -0.2044    2.6089   -2.6297 H   0  0  0  0  0  0  0  0  0  0  0  0
    1.5110    2.1500   -2.5484 H   0  0  0  0  0  0  0  0  0  0  0  0
    1.2049    3.7164   -4.2225 H   0  0  0  0  0  0  0  0  0  0  0  0
   -1.8504    1.3334    0.6731 H   0  0  0  0  0  0  0  0  0  0  0  0
   -1.7807   -1.1388    0.9917 H   0  0  0  0  0  0  0  0  0  0  0  0
    0.1737   -3.2290   -0.6696 H   0  0  0  0  0  0  0  0  0  0  0  0
    2.4170   -2.7159    4.2021 H   0  0  0  0  0  0  0  0  0  0  0  0
    3.3510   -5.2605    4.2783 H   0  0  0  0  0  0  0  0  0  0  0  0
    3.4385   -7.3829    2.9898 H   0  0  0  0  0  0  0  0  0  0  0  0
    0.4464   -9.1877    0.2364 H   0  0  0  0  0  0  0  0  0  0  0  0
    1.4009   -9.8004    1.5135 H   0  0  0  0  0  0  0  0  0  0  0  0
    1.1461   -5.5753   -0.2274 H   0  0  0  0  0  0  0  0  0  0  0  0
  1  2  1  0  0  0  0
  1 27  1  0  0  0  0
  1 28  1  0  0  0  0
  1 29  1  0  0  0  0
  2  3  1  0  0  0  0
  2 11  2  0  0  0  0
  3  4  1  0  0  0  0
  3  9  2  0  0  0  0
  4  5  1  0  0  0  0
  4 30  1  0  0  0  0
  4 31  1  0  0  0  0
  5  6  1  0  0  0  0
  5 32  1  0  0  0  0
  5 33  1  0  0  0  0
  6  7  2  0  0  0  0
  6  8  1  0  0  0  0
  8 34  1  0  0  0  0
  9 10  1  0  0  0  0
  9 35  1  0  0  0  0
 10 11  1  0  0  0  0
 10 36  1  0  0  0  0
 11 12  1  0  0  0  0
 12 13  2  0  0  0  0
 12 37  1  0  0  0  0
 13 14  1  0  0  0  0
 13 26  1  0  0  0  0
 14 15  2  0  0  0  0
 14 16  1  0  0  0  0
 16 17  1  0  0  0  0
 16 38  1  0  0  0  0
 17 18  1  0  0  0  0
 17 26  2  0  0  0  0
 18 19  2  0  0  0  0
 18 39  1  0  0  0  0
 19 20  1  0  0  0  0
 19 40  1  0  0  0  0
 20 21  1  0  0  0  0
 20 25  2  0  0  0  0
 21 22  1  0  0  0  0
 21 23  2  0  0  0  0
 21 24  2  0  0  0  0
 22 41  1  0  0  0  0
 22 42  1  0  0  0  0
 25 26  1  0  0  0  0
 25 43  1  0  0  0  0
M  END
$$$$
