CHEMBL4786529
 OpenBabel04072215383D

 57 62  0  0  0  0  0  0  0  0999 V2000
    5.7263   -0.2810    3.2537 C   0  0  0  0  0  0  0  0  0  0  0  0
    4.8557   -0.3516    2.0363 C   0  0  0  0  0  0  0  0  0  0  0  0
    5.1669   -1.2107    1.0008 C   0  0  0  0  0  0  0  0  0  0  0  0
    4.2180   -1.4093    0.0007 C   0  0  0  0  0  0  0  0  0  0  0  0
    4.3435   -2.5971   -0.8457 C   0  0  0  0  0  0  0  0  0  0  0  0
    4.3123   -2.7582   -2.2192 C   0  0  0  0  0  0  0  0  0  0  0  0
    3.8987   -4.0187   -2.5627 N   0  0  0  0  0  0  0  0  0  0  0  0
    3.6968   -4.6340   -1.4180 C   0  0  0  0  0  0  0  0  0  0  0  0
    3.0815   -5.8725   -1.1156 C   0  0  0  0  0  0  0  0  0  0  0  0
    3.0523   -6.3273    0.1568 C   0  0  0  0  0  0  0  0  0  0  0  0
    2.3279   -7.5836    0.3447 C   0  0  0  0  0  0  0  0  0  0  0  0
    3.0132   -8.7860    0.1991 C   0  0  0  0  0  0  0  0  0  0  0  0
    2.3063   -9.9866    0.1718 C   0  0  0  0  0  0  0  0  0  0  0  0
    0.9124  -10.0270    0.3075 C   0  0  0  0  0  0  0  0  0  0  0  0
    0.2392  -11.2284    0.2978 N   0  0  0  0  0  0  0  0  0  0  0  0
   -0.9901  -11.4239    1.0703 C   0  0  0  0  0  0  0  0  0  0  0  0
   -0.9356  -12.8019    1.7667 C   0  0  0  0  0  0  0  0  0  0  0  0
   -0.7075  -13.9269    0.8325 N   0  0  0  0  0  0  0  0  0  0  0  0
    0.5424  -13.6717    0.0805 C   0  0  0  0  0  0  0  0  0  0  0  0
    0.5720  -12.3062   -0.6444 C   0  0  0  0  0  0  0  0  0  0  0  0
    0.2491   -8.8044    0.4922 C   0  0  0  0  0  0  0  0  0  0  0  0
    0.9426   -7.5916    0.5142 C   0  0  0  0  0  0  0  0  0  0  0  0
    3.7128   -5.5898    1.2303 C   0  0  0  0  0  0  0  0  0  0  0  0
    4.2076   -4.3706    0.9625 C   0  0  0  0  0  0  0  0  0  0  0  0
    4.1371   -3.8746   -0.3446 N   0  0  0  0  0  0  0  0  0  0  0  0
    3.0192   -0.6417   -0.0162 C   0  0  0  0  0  0  0  0  0  0  0  0
    2.0300   -0.7190   -1.0387 C   0  0  0  0  0  0  0  0  0  0  0  0
    0.8625    0.0180   -0.9591 C   0  0  0  0  0  0  0  0  0  0  0  0
   -0.0392   -0.0600   -1.9533 F   0  0  0  0  0  0  0  0  0  0  0  0
    0.6096    0.8244    0.1272 C   0  0  0  0  0  0  0  0  0  0  0  0
    1.5755    0.9028    1.1303 C   0  0  0  0  0  0  0  0  0  0  0  0
    1.2899    1.6705    2.1955 F   0  0  0  0  0  0  0  0  0  0  0  0
    2.7931    0.2115    1.0796 C   0  0  0  0  0  0  0  0  0  0  0  0
    3.6916    0.3317    2.0852 N   0  0  0  0  0  0  0  0  0  0  0  0
    6.6892   -0.7762    3.0912 H   0  0  0  0  0  0  0  0  0  0  0  0
    5.2247   -0.7823    4.0892 H   0  0  0  0  0  0  0  0  0  0  0  0
    5.9136    0.7610    3.5241 H   0  0  0  0  0  0  0  0  0  0  0  0
    6.0873   -1.7871    1.0214 H   0  0  0  0  0  0  0  0  0  0  0  0
    4.4165   -1.9937   -2.9783 H   0  0  0  0  0  0  0  0  0  0  0  0
    2.5939   -6.4032   -1.9271 H   0  0  0  0  0  0  0  0  0  0  0  0
    4.0919   -8.7932    0.0691 H   0  0  0  0  0  0  0  0  0  0  0  0
    2.8764  -10.9044    0.0592 H   0  0  0  0  0  0  0  0  0  0  0  0
   -1.8578  -11.3661    0.4019 H   0  0  0  0  0  0  0  0  0  0  0  0
   -1.1131  -10.6625    1.8491 H   0  0  0  0  0  0  0  0  0  0  0  0
   -1.8744  -12.9716    2.3037 H   0  0  0  0  0  0  0  0  0  0  0  0
   -0.1364  -12.7973    2.5193 H   0  0  0  0  0  0  0  0  0  0  0  0
   -1.4775  -13.9353    0.1640 H   0  0  0  0  0  0  0  0  0  0  0  0
    0.6741  -14.4724   -0.6555 H   0  0  0  0  0  0  0  0  0  0  0  0
    1.3920  -13.7358    0.7718 H   0  0  0  0  0  0  0  0  0  0  0  0
   -0.1689  -12.3057   -1.4544 H   0  0  0  0  0  0  0  0  0  0  0  0
    1.5500  -12.1784   -1.1205 H   0  0  0  0  0  0  0  0  0  0  0  0
   -0.8347   -8.7737    0.5719 H   0  0  0  0  0  0  0  0  0  0  0  0
    0.3877   -6.6614    0.6168 H   0  0  0  0  0  0  0  0  0  0  0  0
    3.7663   -6.0231    2.2240 H   0  0  0  0  0  0  0  0  0  0  0  0
    4.6760   -3.7616    1.7219 H   0  0  0  0  0  0  0  0  0  0  0  0
    2.1547   -1.3493   -1.9150 H   0  0  0  0  0  0  0  0  0  0  0  0
   -0.3169    1.3785    0.2065 H   0  0  0  0  0  0  0  0  0  0  0  0
  1  2  1  0  0  0  0
  1 35  1  0  0  0  0
  1 36  1  0  0  0  0
  1 37  1  0  0  0  0
  2  3  1  0  0  0  0
  2 34  2  0  0  0  0
  3  4  2  0  0  0  0
  3 38  1  0  0  0  0
  4  5  1  0  0  0  0
  4 26  1  0  0  0  0
  5  6  2  0  0  0  0
  5 25  1  0  0  0  0
  6  7  1  0  0  0  0
  6 39  1  0  0  0  0
  7  8  2  0  0  0  0
  8  9  1  0  0  0  0
  8 25  1  0  0  0  0
  9 10  2  0  0  0  0
  9 40  1  0  0  0  0
 10 11  1  0  0  0  0
 10 23  1  0  0  0  0
 11 12  1  0  0  0  0
 11 22  2  0  0  0  0
 12 13  2  0  0  0  0
 12 41  1  0  0  0  0
 13 14  1  0  0  0  0
 13 42  1  0  0  0  0
 14 15  1  0  0  0  0
 14 21  2  0  0  0  0
 15 16  1  0  0  0  0
 15 20  1  0  0  0  0
 16 17  1  0  0  0  0
 16 43  1  0  0  0  0
 16 44  1  0  0  0  0
 17 18  1  0  0  0  0
 17 45  1  0  0  0  0
 17 46  1  0  0  0  0
 18 19  1  0  0  0  0
 18 47  1  0  0  0  0
 19 20  1  0  0  0  0
 19 48  1  0  0  0  0
 19 49  1  0  0  0  0
 20 50  1  0  0  0  0
 20 51  1  0  0  0  0
 21 22  1  0  0  0  0
 21 52  1  0  0  0  0
 22 53  1  0  0  0  0
 23 24  2  0  0  0  0
 23 54  1  0  0  0  0
 24 25  1  0  0  0  0
 24 55  1  0  0  0  0
 26 27  1  0  0  0  0
 26 33  2  0  0  0  0
 27 28  2  0  0  0  0
 27 56  1  0  0  0  0
 28 29  1  0  0  0  0
 28 30  1  0  0  0  0
 30 31  2  0  0  0  0
 30 57  1  0  0  0  0
 31 32  1  0  0  0  0
 31 33  1  0  0  0  0
 33 34  1  0  0  0  0
M  END
$$$$
