CHEMBL511414
 OpenBabel04072215383D

 54 58  0  0  0  0  0  0  0  0999 V2000
    1.0314   -1.0094    3.0501 C   0  0  0  0  0  0  0  0  0  0  0  0
    2.4872   -0.7967    2.7704 C   0  0  0  0  0  0  0  0  0  0  0  0
    3.1848    0.2643    3.3489 C   0  0  0  0  0  0  0  0  0  0  0  0
    4.5475    0.4673    3.1017 C   0  0  0  0  0  0  0  0  0  0  0  0
    5.2022   -0.4329    2.2497 C   0  0  0  0  0  0  0  0  0  0  0  0
    4.5339   -1.5156    1.6714 C   0  0  0  0  0  0  0  0  0  0  0  0
    3.1591   -1.6891    1.9288 C   0  0  0  0  0  0  0  0  0  0  0  0
    5.4901   -2.2681    0.9289 C   0  0  0  0  0  0  0  0  0  0  0  0
    5.2536   -3.5336    0.2532 C   0  0  0  0  0  0  0  0  0  0  0  0
    4.1325   -3.8039   -0.1387 O   0  0  0  0  0  0  0  0  0  0  0  0
    6.3685   -4.4956    0.1051 C   0  0  0  0  0  0  0  0  0  0  0  0
    7.3405   -4.4630    1.1198 C   0  0  0  0  0  0  0  0  0  0  0  0
    8.5253   -5.1634    0.9849 C   0  0  0  0  0  0  0  0  0  0  0  0
    8.6646   -6.0535   -0.0688 C   0  0  0  0  0  0  0  0  0  0  0  0
    7.6266   -6.2086   -0.9991 C   0  0  0  0  0  0  0  0  0  0  0  0
    6.5050   -5.3508   -1.0044 C   0  0  0  0  0  0  0  0  0  0  0  0
    5.6550   -5.3967   -2.1041 N   0  0  0  0  0  0  0  0  0  0  0  0
    4.2251   -5.1268   -2.0428 C   0  0  0  0  0  0  0  0  0  0  0  0
    3.4440   -5.8270   -3.1048 C   0  0  0  0  0  0  0  0  0  0  0  0
    3.3263   -5.0671   -4.2654 C   0  0  0  0  0  0  0  0  0  0  0  0
    2.6620   -5.5816   -5.3042 C   0  0  0  0  0  0  0  0  0  0  0  0
    2.0232   -6.7385   -5.0807 C   0  0  0  0  0  0  0  0  0  0  0  0
    1.2398   -7.0950   -6.0286 N   0  0  0  0  0  0  0  0  0  0  0  0
    0.5001   -7.3851   -7.0134 C   0  0  0  0  0  0  0  0  0  0  0  0
    0.2839   -8.4479   -6.2003 C   0  0  0  0  0  0  0  0  0  0  0  0
    0.9865   -8.7369   -4.7169 C   0  0  0  0  0  0  0  0  0  0  0  0
    1.9681   -7.6639   -4.1032 C   0  0  0  0  0  0  0  0  0  0  0  0
    2.8766   -7.1618   -3.0233 C   0  0  0  0  0  0  0  0  0  0  0  0
    6.6786   -1.5636    0.9844 C   0  0  0  0  0  0  0  0  0  0  0  0
    6.5076   -0.4940    1.8165 N   0  0  0  0  0  0  0  0  0  0  0  0
    7.5674    0.4158    2.1870 C   0  0  0  0  0  0  0  0  0  0  0  0
    0.6473   -0.2439    3.7306 H   0  0  0  0  0  0  0  0  0  0  0  0
    0.8786   -1.9873    3.5184 H   0  0  0  0  0  0  0  0  0  0  0  0
    0.4580   -0.9581    2.1193 H   0  0  0  0  0  0  0  0  0  0  0  0
    2.6640    0.9526    4.0104 H   0  0  0  0  0  0  0  0  0  0  0  0
    5.0697    1.2955    3.5680 H   0  0  0  0  0  0  0  0  0  0  0  0
    2.6240   -2.5226    1.4775 H   0  0  0  0  0  0  0  0  0  0  0  0
    7.1768   -3.8403    1.9981 H   0  0  0  0  0  0  0  0  0  0  0  0
    9.3230   -5.0262    1.7073 H   0  0  0  0  0  0  0  0  0  0  0  0
    9.5836   -6.6281   -0.1648 H   0  0  0  0  0  0  0  0  0  0  0  0
    7.7280   -6.9974   -1.7435 H   0  0  0  0  0  0  0  0  0  0  0  0
    6.0540   -5.6526   -2.9963 H   0  0  0  0  0  0  0  0  0  0  0  0
    4.0375   -4.0316   -2.1513 H   0  0  0  0  0  0  0  0  0  0  0  0
    3.8036   -5.5325   -1.1253 H   0  0  0  0  0  0  0  0  0  0  0  0
    3.7735   -4.0961   -4.4031 H   0  0  0  0  0  0  0  0  0  0  0  0
    2.5691   -5.1370   -6.2776 H   0  0  0  0  0  0  0  0  0  0  0  0
    0.7696   -6.4975   -7.5487 H   0  0  0  0  0  0  0  0  0  0  0  0
   -0.4843   -9.0851   -6.6388 H   0  0  0  0  0  0  0  0  0  0  0  0
    0.7557   -9.6381   -4.1434 H   0  0  0  0  0  0  0  0  0  0  0  0
    3.1752   -7.7902   -2.1764 H   0  0  0  0  0  0  0  0  0  0  0  0
    7.6430   -1.7717    0.5362 H   0  0  0  0  0  0  0  0  0  0  0  0
    8.4948    0.1088    1.6944 H   0  0  0  0  0  0  0  0  0  0  0  0
    7.7001    0.3738    3.2709 H   0  0  0  0  0  0  0  0  0  0  0  0
    7.2932    1.4212    1.8620 H   0  0  0  0  0  0  0  0  0  0  0  0
  1  2  1  0  0  0  0
  1 32  1  0  0  0  0
  1 33  1  0  0  0  0
  1 34  1  0  0  0  0
  2  3  1  0  0  0  0
  2  7  2  0  0  0  0
  3  4  2  0  0  0  0
  3 35  1  0  0  0  0
  4  5  1  0  0  0  0
  4 36  1  0  0  0  0
  5  6  2  0  0  0  0
  5 30  1  0  0  0  0
  6  7  1  0  0  0  0
  6  8  1  0  0  0  0
  7 37  1  0  0  0  0
  8  9  1  0  0  0  0
  8 29  2  0  0  0  0
  9 10  2  0  0  0  0
  9 11  1  0  0  0  0
 11 12  1  0  0  0  0
 11 16  2  0  0  0  0
 12 13  2  0  0  0  0
 12 38  1  0  0  0  0
 13 14  1  0  0  0  0
 13 39  1  0  0  0  0
 14 15  2  0  0  0  0
 14 40  1  0  0  0  0
 15 16  1  0  0  0  0
 15 41  1  0  0  0  0
 16 17  1  0  0  0  0
 17 18  1  0  0  0  0
 17 42  1  0  0  0  0
 18 19  1  0  0  0  0
 18 43  1  0  0  0  0
 18 44  1  0  0  0  0
 19 20  1  0  0  0  0
 19 28  2  0  0  0  0
 20 21  2  0  0  0  0
 20 45  1  0  0  0  0
 21 22  1  0  0  0  0
 21 46  1  0  0  0  0
 22 23  1  0  0  0  0
 22 27  2  0  0  0  0
 23 24  2  0  0  0  0
 24 25  1  0  0  0  0
 24 47  1  0  0  0  0
 25 26  2  0  0  0  0
 25 48  1  0  0  0  0
 26 27  1  0  0  0  0
 26 49  1  0  0  0  0
 27 28  1  0  0  0  0
 28 50  1  0  0  0  0
 29 30  1  0  0  0  0
 29 51  1  0  0  0  0
 30 31  1  0  0  0  0
 31 52  1  0  0  0  0
 31 53  1  0  0  0  0
 31 54  1  0  0  0  0
M  END
$$$$
