CHEMBL3690432
 OpenBabel04072215373D

 62 64  0  0  1  0  0  0  0  0999 V2000
    9.2570    2.4512    1.7464 C   0  0  0  0  0  0  0  0  0  0  0  0
    8.0978    3.0349    1.1265 N   0  0  0  0  0  0  0  0  0  0  0  0
    6.9214    2.3238    1.0054 C   0  0  0  0  0  0  0  0  0  0  0  0
    6.8057    1.1726    1.4102 O   0  0  0  0  0  0  0  0  0  0  0  0
    5.7813    3.0769    0.2717 C   0  0  0  0  0  0  0  0  0  0  0  0
    4.5074    2.2250    0.1996 C   0  0  0  0  0  0  0  0  0  0  0  0
    5.4571    4.3840    1.0119 C   0  0  0  0  0  0  0  0  0  0  0  0
    6.2380    3.4646   -1.0900 N   0  0  0  0  0  0  0  0  0  0  0  0
    6.5554    2.5086   -1.8965 C   0  0  0  0  0  0  0  0  0  0  0  0
    7.0305    2.7866   -3.3095 C   0  0  3  0  0  0  0  0  0  0  0  0
    6.5038    4.0795   -3.8996 C   0  0  0  0  0  0  0  0  0  0  0  0
    6.3023    4.2632   -5.1663 N   0  0  0  0  0  0  0  0  0  0  0  0
    8.5467    2.7772   -3.3529 C   0  0  0  0  0  0  0  0  0  0  0  0
    9.2796    3.7444   -2.5342 C   0  0  0  0  0  0  0  0  0  0  0  0
   10.6191    3.7844   -2.5905 C   0  0  0  0  0  0  0  0  0  0  0  0
   11.3170    2.8713   -3.3870 N   0  0  0  0  0  0  0  0  0  0  0  0
   12.6826    2.6736   -3.5845 C   0  0  0  0  0  0  0  0  0  0  0  0
   13.7947    3.4303   -2.9832 C   0  0  0  0  0  0  0  0  0  0  0  0
   14.9667    3.6211   -3.7320 C   0  0  0  0  0  0  0  0  0  0  0  0
   16.0440    4.3215   -3.1985 C   0  0  0  0  0  0  0  0  0  0  0  0
   15.9540    4.8750   -1.9255 C   0  0  0  0  0  0  0  0  0  0  0  0
   14.7965    4.7284   -1.1550 C   0  0  0  0  0  0  0  0  0  0  0  0
   14.6224    5.3469    0.1162 N   0  0  0  0  0  0  0  0  0  0  0  0
   15.5419    6.1423    0.7388 C   0  0  0  0  0  0  0  0  0  0  0  0
   16.6621    6.4257    0.3360 O   0  0  0  0  0  0  0  0  0  0  0  0
   15.1142    6.6397    1.9550 N   0  0  0  0  0  0  0  0  0  0  0  0
   16.0289    7.5633    2.6456 C   0  0  0  0  0  0  0  0  0  0  0  0
   15.5663    8.1317    3.9832 C   0  0  0  0  0  0  0  0  0  0  0  0
   14.3091    7.7292    4.2833 F   0  0  0  0  0  0  0  0  0  0  0  0
   16.3762    7.7448    4.9925 F   0  0  0  0  0  0  0  0  0  0  0  0
   15.5605    9.4843    3.9570 F   0  0  0  0  0  0  0  0  0  0  0  0
   13.7478    3.9556   -1.6776 C   0  0  0  0  0  0  0  0  0  0  0  0
   12.7340    1.6431   -4.5149 C   0  0  0  0  0  0  0  0  0  0  0  0
   11.4908    1.1936   -4.8666 N   0  0  0  0  0  0  0  0  0  0  0  0
   10.6540    1.9346   -4.1805 C   0  0  0  0  0  0  0  0  0  0  0  0
    9.2303    1.9191   -4.1451 C   0  0  0  0  0  0  0  0  0  0  0  0
   10.0697    3.1783    1.7303 H   0  0  0  0  0  0  0  0  0  0  0  0
    9.5470    1.5517    1.1977 H   0  0  0  0  0  0  0  0  0  0  0  0
    9.0139    2.1817    2.7800 H   0  0  0  0  0  0  0  0  0  0  0  0
    8.1598    3.9386    0.6818 H   0  0  0  0  0  0  0  0  0  0  0  0
    4.1397    1.9850    1.2040 H   0  0  0  0  0  0  0  0  0  0  0  0
    4.6770    1.2711   -0.3106 H   0  0  0  0  0  0  0  0  0  0  0  0
    3.7088    2.7477   -0.3401 H   0  0  0  0  0  0  0  0  0  0  0  0
    5.1386    4.1885    2.0418 H   0  0  0  0  0  0  0  0  0  0  0  0
    4.6574    4.9356    0.5040 H   0  0  0  0  0  0  0  0  0  0  0  0
    6.3207    5.0569    1.0576 H   0  0  0  0  0  0  0  0  0  0  0  0
    6.5308    1.4438   -1.5999 H   0  0  0  0  0  0  0  0  0  0  0  0
    6.6370    1.9688   -3.9284 H   0  0  0  0  0  0  0  0  0  0  0  0
    6.3172    4.9231   -3.2137 H   0  0  0  0  0  0  0  0  0  0  0  0
    6.5426    3.4286   -5.7115 H   0  0  0  0  0  0  0  0  0  0  0  0
    8.7359    4.4371   -1.9021 H   0  0  0  0  0  0  0  0  0  0  0  0
   11.1807    4.5187   -2.0353 H   0  0  0  0  0  0  0  0  0  0  0  0
   15.0579    3.2331   -4.7444 H   0  0  0  0  0  0  0  0  0  0  0  0
   16.9562    4.4515   -3.7774 H   0  0  0  0  0  0  0  0  0  0  0  0
   16.8207    5.4212   -1.5707 H   0  0  0  0  0  0  0  0  0  0  0  0
   13.7416    5.2016    0.5768 H   0  0  0  0  0  0  0  0  0  0  0  0
   14.1224    6.7376    2.1252 H   0  0  0  0  0  0  0  0  0  0  0  0
   16.2421    8.3902    1.9569 H   0  0  0  0  0  0  0  0  0  0  0  0
   16.9735    7.0244    2.7926 H   0  0  0  0  0  0  0  0  0  0  0  0
   12.8912    3.7519   -1.0449 H   0  0  0  0  0  0  0  0  0  0  0  0
   13.6183    1.1946   -4.9475 H   0  0  0  0  0  0  0  0  0  0  0  0
    8.7310    1.2009   -4.7862 H   0  0  0  0  0  0  0  0  0  0  0  0
  1  2  1  0  0  0  0
  1 37  1  0  0  0  0
  1 38  1  0  0  0  0
  1 39  1  0  0  0  0
  2  3  1  0  0  0  0
  2 40  1  0  0  0  0
  3  4  2  0  0  0  0
  3  5  1  0  0  0  0
  5  6  1  0  0  0  0
  5  7  1  0  0  0  0
  5  8  1  0  0  0  0
  6 41  1  0  0  0  0
  6 42  1  0  0  0  0
  6 43  1  0  0  0  0
  7 44  1  0  0  0  0
  7 45  1  0  0  0  0
  7 46  1  0  0  0  0
  8  9  2  0  0  0  0
  9 10  1  0  0  0  0
  9 47  1  0  0  0  0
 10 11  1  0  0  0  0
 10 13  1  0  0  0  0
 10 48  1  0  0  0  0
 11 12  2  0  0  0  0
 11 49  1  0  0  0  0
 12 50  1  0  0  0  0
 13 14  1  0  0  0  0
 13 36  2  0  0  0  0
 14 15  2  0  0  0  0
 14 51  1  0  0  0  0
 15 16  1  0  0  0  0
 15 52  1  0  0  0  0
 16 17  1  0  0  0  0
 16 35  1  0  0  0  0
 17 18  1  0  0  0  0
 17 33  2  0  0  0  0
 18 19  1  0  0  0  0
 18 32  2  0  0  0  0
 19 20  2  0  0  0  0
 19 53  1  0  0  0  0
 20 21  1  0  0  0  0
 20 54  1  0  0  0  0
 21 22  2  0  0  0  0
 21 55  1  0  0  0  0
 22 23  1  0  0  0  0
 22 32  1  0  0  0  0
 23 24  1  0  0  0  0
 23 56  1  0  0  0  0
 24 25  2  0  0  0  0
 24 26  1  0  0  0  0
 26 27  1  0  0  0  0
 26 57  1  0  0  0  0
 27 28  1  0  0  0  0
 27 58  1  0  0  0  0
 27 59  1  0  0  0  0
 28 29  1  0  0  0  0
 28 30  1  0  0  0  0
 28 31  1  0  0  0  0
 32 60  1  0  0  0  0
 33 34  1  0  0  0  0
 33 61  1  0  0  0  0
 34 35  2  0  0  0  0
 35 36  1  0  0  0  0
 36 62  1  0  0  0  0
M  END
$$$$
