CHEMBL366452
 OpenBabel04072215373D

 58 62  0  0  0  0  0  0  0  0999 V2000
    1.9888   -0.9286   -1.2135 C   0  0  0  0  0  0  0  0  0  0  0  0
    2.0372    0.8150   -0.8369 S   0  0  0  0  0  0  0  0  0  0  0  0
    3.1005    1.3898   -1.6244 O   0  0  0  0  0  0  0  0  0  0  0  0
    0.6869    1.3310   -0.9071 O   0  0  0  0  0  0  0  0  0  0  0  0
    2.5347    0.8152    0.7897 N   0  0  0  0  0  0  0  0  0  0  0  0
    1.5350    0.3707    1.8055 C   0  0  0  0  0  0  0  0  0  0  0  0
    0.6012    1.5206    2.2419 C   0  0  0  0  0  0  0  0  0  0  0  0
    1.2998    2.7200    2.7557 N   0  0  0  0  0  0  0  0  0  0  0  0
    1.9732    2.5251    4.0536 C   0  0  0  0  0  0  0  0  0  0  0  0
    1.0458    2.1280    5.1831 C   0  0  0  0  0  0  0  0  0  0  0  0
    0.7748    0.7725    5.4321 C   0  0  0  0  0  0  0  0  0  0  0  0
   -0.1518    0.3975    6.4002 C   0  0  0  0  0  0  0  0  0  0  0  0
   -0.7712    1.3737    7.1810 C   0  0  0  0  0  0  0  0  0  0  0  0
   -1.7561    0.9800    8.1914 C   0  0  0  0  0  0  0  0  0  0  0  0
   -3.1869    0.9698    7.9095 C   0  0  0  0  0  0  0  0  0  0  0  0
   -4.0479    0.6422    8.8848 C   0  0  0  0  0  0  0  0  0  0  0  0
   -3.5662    0.2652   10.1430 N   0  0  0  0  0  0  0  0  0  0  0  0
   -4.2240   -0.1630   11.2922 C   0  0  0  0  0  0  0  0  0  0  0  0
   -5.6624   -0.3968   11.4783 C   0  0  0  0  0  0  0  0  0  0  0  0
   -6.4973   -0.8378   10.4430 C   0  0  0  0  0  0  0  0  0  0  0  0
   -7.8484   -1.1110   10.6695 C   0  0  0  0  0  0  0  0  0  0  0  0
   -8.3773   -0.9942   11.9500 C   0  0  0  0  0  0  0  0  0  0  0  0
   -7.5643   -0.5710   12.9964 C   0  0  0  0  0  0  0  0  0  0  0  0
   -6.2230   -0.2605   12.7587 C   0  0  0  0  0  0  0  0  0  0  0  0
   -3.1984   -0.3396   12.2129 C   0  0  0  0  0  0  0  0  0  0  0  0
   -1.9676   -0.0780   11.6863 N   0  0  0  0  0  0  0  0  0  0  0  0
   -2.2022    0.2689   10.4428 C   0  0  0  0  0  0  0  0  0  0  0  0
   -1.2951    0.6440    9.4148 C   0  0  0  0  0  0  0  0  0  0  0  0
   -0.4670    2.7244    6.9835 C   0  0  0  0  0  0  0  0  0  0  0  0
    0.4232    3.1009    5.9772 C   0  0  0  0  0  0  0  0  0  0  0  0
    2.2679    3.1529    1.7167 C   0  0  0  0  0  0  0  0  0  0  0  0
    3.2469    2.0527    1.2481 C   0  0  0  0  0  0  0  0  0  0  0  0
    1.7308   -1.0296   -2.2705 H   0  0  0  0  0  0  0  0  0  0  0  0
    1.2267   -1.4202   -0.6087 H   0  0  0  0  0  0  0  0  0  0  0  0
    2.9754   -1.3597   -1.0348 H   0  0  0  0  0  0  0  0  0  0  0  0
    2.0963   -0.0156    2.6637 H   0  0  0  0  0  0  0  0  0  0  0  0
    0.9482   -0.4732    1.4318 H   0  0  0  0  0  0  0  0  0  0  0  0
   -0.1333    1.1491    2.9628 H   0  0  0  0  0  0  0  0  0  0  0  0
   -0.0116    1.8377    1.3905 H   0  0  0  0  0  0  0  0  0  0  0  0
    2.4505    3.4716    4.3432 H   0  0  0  0  0  0  0  0  0  0  0  0
    2.7863    1.7926    3.9997 H   0  0  0  0  0  0  0  0  0  0  0  0
    1.2629   -0.0037    4.8505 H   0  0  0  0  0  0  0  0  0  0  0  0
   -0.3919   -0.6542    6.5374 H   0  0  0  0  0  0  0  0  0  0  0  0
   -3.5302    1.2405    6.9155 H   0  0  0  0  0  0  0  0  0  0  0  0
   -5.1136    0.6677    8.7185 H   0  0  0  0  0  0  0  0  0  0  0  0
   -6.1162   -1.0193    9.4439 H   0  0  0  0  0  0  0  0  0  0  0  0
   -8.4770   -1.4409    9.8466 H   0  0  0  0  0  0  0  0  0  0  0  0
   -9.4177   -1.2467   12.1338 H   0  0  0  0  0  0  0  0  0  0  0  0
   -7.9679   -0.4912   14.0022 H   0  0  0  0  0  0  0  0  0  0  0  0
   -5.6162    0.0744   13.5975 H   0  0  0  0  0  0  0  0  0  0  0  0
   -3.2921   -0.6691   13.2401 H   0  0  0  0  0  0  0  0  0  0  0  0
   -0.2380    0.6531    9.6579 H   0  0  0  0  0  0  0  0  0  0  0  0
   -0.9312    3.4879    7.6044 H   0  0  0  0  0  0  0  0  0  0  0  0
    0.6252    4.1573    5.8145 H   0  0  0  0  0  0  0  0  0  0  0  0
    2.8359    4.0192    2.0773 H   0  0  0  0  0  0  0  0  0  0  0  0
    1.6984    3.5154    0.8509 H   0  0  0  0  0  0  0  0  0  0  0  0
    3.9136    1.7620    2.0685 H   0  0  0  0  0  0  0  0  0  0  0  0
    3.9050    2.4415    0.4650 H   0  0  0  0  0  0  0  0  0  0  0  0
  1  2  1  0  0  0  0
  1 33  1  0  0  0  0
  1 34  1  0  0  0  0
  1 35  1  0  0  0  0
  2  3  2  0  0  0  0
  2  4  2  0  0  0  0
  2  5  1  0  0  0  0
  5  6  1  0  0  0  0
  5 32  1  0  0  0  0
  6  7  1  0  0  0  0
  6 36  1  0  0  0  0
  6 37  1  0  0  0  0
  7  8  1  0  0  0  0
  7 38  1  0  0  0  0
  7 39  1  0  0  0  0
  8  9  1  0  0  0  0
  8 31  1  0  0  0  0
  9 10  1  0  0  0  0
  9 40  1  0  0  0  0
  9 41  1  0  0  0  0
 10 11  1  0  0  0  0
 10 30  2  0  0  0  0
 11 12  2  0  0  0  0
 11 42  1  0  0  0  0
 12 13  1  0  0  0  0
 12 43  1  0  0  0  0
 13 14  1  0  0  0  0
 13 29  2  0  0  0  0
 14 15  1  0  0  0  0
 14 28  2  0  0  0  0
 15 16  2  0  0  0  0
 15 44  1  0  0  0  0
 16 17  1  0  0  0  0
 16 45  1  0  0  0  0
 17 18  1  0  0  0  0
 17 27  1  0  0  0  0
 18 19  1  0  0  0  0
 18 25  2  0  0  0  0
 19 20  1  0  0  0  0
 19 24  2  0  0  0  0
 20 21  2  0  0  0  0
 20 46  1  0  0  0  0
 21 22  1  0  0  0  0
 21 47  1  0  0  0  0
 22 23  2  0  0  0  0
 22 48  1  0  0  0  0
 23 24  1  0  0  0  0
 23 49  1  0  0  0  0
 24 50  1  0  0  0  0
 25 26  1  0  0  0  0
 25 51  1  0  0  0  0
 26 27  2  0  0  0  0
 27 28  1  0  0  0  0
 28 52  1  0  0  0  0
 29 30  1  0  0  0  0
 29 53  1  0  0  0  0
 30 54  1  0  0  0  0
 31 32  1  0  0  0  0
 31 55  1  0  0  0  0
 31 56  1  0  0  0  0
 32 57  1  0  0  0  0
 32 58  1  0  0  0  0
M  END
$$$$
