CHEMBL4102191
 OpenBabel04072215383D

 59 63  0  0  0  0  0  0  0  0999 V2000
    9.8177    3.0201    4.3935 C   0  0  0  0  0  0  0  0  0  0  0  0
    9.8730    1.8930    5.2898 O   0  0  0  0  0  0  0  0  0  0  0  0
    8.8582    0.9911    5.1606 C   0  0  0  0  0  0  0  0  0  0  0  0
    8.2052    0.8177    3.9197 C   0  0  0  0  0  0  0  0  0  0  0  0
    7.0611    0.0537    3.7661 C   0  0  0  0  0  0  0  0  0  0  0  0
    6.4586    0.0679    2.5767 N   0  0  0  0  0  0  0  0  0  0  0  0
    5.3057   -0.5951    2.4789 C   0  0  0  0  0  0  0  0  0  0  0  0
    4.6983   -1.2647    3.4549 N   0  0  0  0  0  0  0  0  0  0  0  0
    5.3692   -1.3367    4.6301 C   0  0  0  0  0  0  0  0  0  0  0  0
    4.7857   -2.0922    5.6599 O   0  0  0  0  0  0  0  0  0  0  0  0
    3.8330   -3.0402    5.2870 C   0  0  0  0  0  0  0  0  0  0  0  0
    4.0771   -3.8675    4.1944 C   0  0  0  0  0  0  0  0  0  0  0  0
    3.0993   -4.7291    3.7235 C   0  0  0  0  0  0  0  0  0  0  0  0
    1.8504   -4.8326    4.3478 C   0  0  0  0  0  0  0  0  0  0  0  0
    0.8342   -5.6571    3.7575 N   0  0  0  0  0  0  0  0  0  0  0  0
    0.8259   -6.0942    2.4287 C   0  0  0  0  0  0  0  0  0  0  0  0
    1.6703   -5.8102    1.5848 O   0  0  0  0  0  0  0  0  0  0  0  0
   -0.2871   -6.8704    2.1076 N   0  0  0  0  0  0  0  0  0  0  0  0
   -0.4530   -7.3609    0.7786 C   0  0  0  0  0  0  0  0  0  0  0  0
   -1.6128   -7.0461    0.0732 C   0  0  0  0  0  0  0  0  0  0  0  0
   -1.7965   -7.5328   -1.2254 C   0  0  0  0  0  0  0  0  0  0  0  0
   -0.8505   -8.3737   -1.8230 C   0  0  0  0  0  0  0  0  0  0  0  0
   -1.2367   -8.9424   -3.4077 Cl  0  0  0  0  0  0  0  0  0  0  0  0
    0.3206   -8.7138   -1.1377 C   0  0  0  0  0  0  0  0  0  0  0  0
    1.3858   -9.6247   -1.6998 C   0  0  0  0  0  0  0  0  0  0  0  0
    1.1293  -10.1665   -2.9241 F   0  0  0  0  0  0  0  0  0  0  0  0
    2.5869   -8.9980   -1.8320 F   0  0  0  0  0  0  0  0  0  0  0  0
    1.6174  -10.6961   -0.8870 F   0  0  0  0  0  0  0  0  0  0  0  0
    0.5132   -8.1755    0.1646 C   0  0  0  0  0  0  0  0  0  0  0  0
    1.6527   -4.1012    5.5707 C   0  0  0  0  0  0  0  0  0  0  0  0
    0.4842   -4.1989    6.3684 C   0  0  0  0  0  0  0  0  0  0  0  0
    0.3465   -3.4717    7.5493 C   0  0  0  0  0  0  0  0  0  0  0  0
    1.3848   -2.6356    7.9067 C   0  0  0  0  0  0  0  0  0  0  0  0
    2.5035   -2.4818    7.1802 N   0  0  0  0  0  0  0  0  0  0  0  0
    2.6585   -3.1947    6.0392 C   0  0  0  0  0  0  0  0  0  0  0  0
    6.5818   -0.6729    4.8568 C   0  0  0  0  0  0  0  0  0  0  0  0
    7.3332   -0.6609    6.0511 C   0  0  0  0  0  0  0  0  0  0  0  0
    8.4304    0.2019    6.2341 C   0  0  0  0  0  0  0  0  0  0  0  0
    8.8629    0.1138    7.5234 O   0  0  0  0  0  0  0  0  0  0  0  0
    9.8480    0.9623    8.0747 C   0  0  0  0  0  0  0  0  0  0  0  0
   10.1083    3.9168    4.9461 H   0  0  0  0  0  0  0  0  0  0  0  0
    8.8130    3.2220    4.0009 H   0  0  0  0  0  0  0  0  0  0  0  0
   10.5153    2.8818    3.5585 H   0  0  0  0  0  0  0  0  0  0  0  0
    8.5621    1.3337    3.0298 H   0  0  0  0  0  0  0  0  0  0  0  0
    4.8167   -0.6023    1.5100 H   0  0  0  0  0  0  0  0  0  0  0  0
    5.0218   -3.8065    3.6541 H   0  0  0  0  0  0  0  0  0  0  0  0
    3.3547   -5.2952    2.8392 H   0  0  0  0  0  0  0  0  0  0  0  0
    0.0033   -5.8338    4.3038 H   0  0  0  0  0  0  0  0  0  0  0  0
   -1.1372   -6.5967    2.5792 H   0  0  0  0  0  0  0  0  0  0  0  0
   -2.3598   -6.3760    0.4892 H   0  0  0  0  0  0  0  0  0  0  0  0
   -2.6888   -7.2450   -1.7797 H   0  0  0  0  0  0  0  0  0  0  0  0
    1.4227   -8.4256    0.7125 H   0  0  0  0  0  0  0  0  0  0  0  0
   -0.3349   -4.8534    6.0971 H   0  0  0  0  0  0  0  0  0  0  0  0
   -0.5374   -3.5480    8.1585 H   0  0  0  0  0  0  0  0  0  0  0  0
    1.3395   -2.0436    8.8204 H   0  0  0  0  0  0  0  0  0  0  0  0
    7.0328   -1.3044    6.8788 H   0  0  0  0  0  0  0  0  0  0  0  0
    9.6735    0.9748    9.1597 H   0  0  0  0  0  0  0  0  0  0  0  0
    9.7891    1.9966    7.7351 H   0  0  0  0  0  0  0  0  0  0  0  0
   10.8386    0.5294    7.9179 H   0  0  0  0  0  0  0  0  0  0  0  0
  1  2  1  0  0  0  0
  1 41  1  0  0  0  0
  1 42  1  0  0  0  0
  1 43  1  0  0  0  0
  2  3  1  0  0  0  0
  3  4  1  0  0  0  0
  3 38  2  0  0  0  0
  4  5  2  0  0  0  0
  4 44  1  0  0  0  0
  5  6  1  0  0  0  0
  5 36  1  0  0  0  0
  6  7  2  0  0  0  0
  7  8  1  0  0  0  0
  7 45  1  0  0  0  0
  8  9  2  0  0  0  0
  9 10  1  0  0  0  0
  9 36  1  0  0  0  0
 10 11  1  0  0  0  0
 11 12  1  0  0  0  0
 11 35  2  0  0  0  0
 12 13  2  0  0  0  0
 12 46  1  0  0  0  0
 13 14  1  0  0  0  0
 13 47  1  0  0  0  0
 14 15  1  0  0  0  0
 14 30  2  0  0  0  0
 15 16  1  0  0  0  0
 15 48  1  0  0  0  0
 16 17  2  0  0  0  0
 16 18  1  0  0  0  0
 18 19  1  0  0  0  0
 18 49  1  0  0  0  0
 19 20  1  0  0  0  0
 19 29  2  0  0  0  0
 20 21  2  0  0  0  0
 20 50  1  0  0  0  0
 21 22  1  0  0  0  0
 21 51  1  0  0  0  0
 22 23  1  0  0  0  0
 22 24  2  0  0  0  0
 24 25  1  0  0  0  0
 24 29  1  0  0  0  0
 25 26  1  0  0  0  0
 25 27  1  0  0  0  0
 25 28  1  0  0  0  0
 29 52  1  0  0  0  0
 30 31  1  0  0  0  0
 30 35  1  0  0  0  0
 31 32  2  0  0  0  0
 31 53  1  0  0  0  0
 32 33  1  0  0  0  0
 32 54  1  0  0  0  0
 33 34  2  0  0  0  0
 33 55  1  0  0  0  0
 34 35  1  0  0  0  0
 36 37  2  0  0  0  0
 37 38  1  0  0  0  0
 37 56  1  0  0  0  0
 38 39  1  0  0  0  0
 39 40  1  0  0  0  0
 40 57  1  0  0  0  0
 40 58  1  0  0  0  0
 40 59  1  0  0  0  0
M  END
$$$$
