CHEMBL597596
 OpenBabel04072215383D

 42 45  0  0  0  0  0  0  0  0999 V2000
    1.3969    0.7188   -0.3024 C   0  0  0  0  0  0  0  0  0  0  0  0
    2.5990   -0.0140   -0.1042 O   0  0  0  0  0  0  0  0  0  0  0  0
    3.2414   -0.4670   -1.2221 C   0  0  0  0  0  0  0  0  0  0  0  0
    2.8724   -0.2316   -2.5411 C   0  0  0  0  0  0  0  0  0  0  0  0
    3.6305   -0.7754   -3.5877 C   0  0  0  0  0  0  0  0  0  0  0  0
    4.7384   -1.6157   -3.3480 C   0  0  0  0  0  0  0  0  0  0  0  0
    5.0686   -1.8797   -2.0008 C   0  0  0  0  0  0  0  0  0  0  0  0
    4.3604   -1.2574   -0.9622 C   0  0  0  0  0  0  0  0  0  0  0  0
    6.0818   -2.7677   -1.5864 N   0  0  0  0  0  0  0  0  0  0  0  0
    6.4652   -3.9357   -2.1868 C   0  0  0  0  0  0  0  0  0  0  0  0
    7.3347   -4.6369   -1.6643 O   0  0  0  0  0  0  0  0  0  0  0  0
    5.7373   -4.3794   -3.4338 C   0  0  0  0  0  0  0  0  0  0  0  0
    5.9912   -3.4292   -4.5457 C   0  0  0  0  0  0  0  0  0  0  0  0
    6.7457   -3.7525   -5.6503 C   0  0  0  0  0  0  0  0  0  0  0  0
    7.0384   -2.8883   -6.6380 N   0  0  0  0  0  0  0  0  0  0  0  0
    6.5321   -1.6579   -6.5244 C   0  0  0  0  0  0  0  0  0  0  0  0
    6.8376   -0.7501   -7.5359 N   0  0  0  0  0  0  0  0  0  0  0  0
    6.1125    0.3881   -7.9109 C   0  0  0  0  0  0  0  0  0  0  0  0
    6.7799    1.4941   -8.4513 C   0  0  0  0  0  0  0  0  0  0  0  0
    6.0904    2.6843   -8.7135 C   0  0  0  0  0  0  0  0  0  0  0  0
    4.7228    2.7664   -8.4495 C   0  0  0  0  0  0  0  0  0  0  0  0
    4.0515    3.9363   -8.6723 O   0  0  0  0  0  0  0  0  0  0  0  0
    4.0387    1.6608   -7.9494 C   0  0  0  0  0  0  0  0  0  0  0  0
    2.3467    1.7056   -7.6155 Cl  0  0  0  0  0  0  0  0  0  0  0  0
    4.7340    0.4837   -7.6843 C   0  0  0  0  0  0  0  0  0  0  0  0
    5.7702   -1.2606   -5.4856 N   0  0  0  0  0  0  0  0  0  0  0  0
    5.5204   -2.1334   -4.4916 C   0  0  0  0  0  0  0  0  0  0  0  0
    1.0034    0.9849    0.6835 H   0  0  0  0  0  0  0  0  0  0  0  0
    0.6406    0.1104   -0.8096 H   0  0  0  0  0  0  0  0  0  0  0  0
    1.5904    1.6480   -0.8470 H   0  0  0  0  0  0  0  0  0  0  0  0
    2.0095    0.3752   -2.7966 H   0  0  0  0  0  0  0  0  0  0  0  0
    3.3411   -0.5421   -4.6127 H   0  0  0  0  0  0  0  0  0  0  0  0
    4.6323   -1.4392    0.0754 H   0  0  0  0  0  0  0  0  0  0  0  0
    6.4599   -2.6620   -0.6517 H   0  0  0  0  0  0  0  0  0  0  0  0
    4.6635   -4.4593   -3.2235 H   0  0  0  0  0  0  0  0  0  0  0  0
    6.0696   -5.3897   -3.6970 H   0  0  0  0  0  0  0  0  0  0  0  0
    7.1637   -4.7481   -5.7779 H   0  0  0  0  0  0  0  0  0  0  0  0
    7.4580   -1.1562   -8.2180 H   0  0  0  0  0  0  0  0  0  0  0  0
    7.8533    1.4542   -8.6238 H   0  0  0  0  0  0  0  0  0  0  0  0
    6.6384    3.5369   -9.1024 H   0  0  0  0  0  0  0  0  0  0  0  0
    4.6901    4.6366   -8.8805 H   0  0  0  0  0  0  0  0  0  0  0  0
    4.1907   -0.3714   -7.2911 H   0  0  0  0  0  0  0  0  0  0  0  0
  1  2  1  0  0  0  0
  1 28  1  0  0  0  0
  1 29  1  0  0  0  0
  1 30  1  0  0  0  0
  2  3  1  0  0  0  0
  3  4  1  0  0  0  0
  3  8  2  0  0  0  0
  4  5  2  0  0  0  0
  4 31  1  0  0  0  0
  5  6  1  0  0  0  0
  5 32  1  0  0  0  0
  6  7  2  0  0  0  0
  6 27  1  0  0  0  0
  7  8  1  0  0  0  0
  7  9  1  0  0  0  0
  8 33  1  0  0  0  0
  9 10  1  0  0  0  0
  9 34  1  0  0  0  0
 10 11  2  0  0  0  0
 10 12  1  0  0  0  0
 12 13  1  0  0  0  0
 12 35  1  0  0  0  0
 12 36  1  0  0  0  0
 13 14  1  0  0  0  0
 13 27  2  0  0  0  0
 14 15  2  0  0  0  0
 14 37  1  0  0  0  0
 15 16  1  0  0  0  0
 16 17  1  0  0  0  0
 16 26  2  0  0  0  0
 17 18  1  0  0  0  0
 17 38  1  0  0  0  0
 18 19  1  0  0  0  0
 18 25  2  0  0  0  0
 19 20  2  0  0  0  0
 19 39  1  0  0  0  0
 20 21  1  0  0  0  0
 20 40  1  0  0  0  0
 21 22  1  0  0  0  0
 21 23  2  0  0  0  0
 22 41  1  0  0  0  0
 23 24  1  0  0  0  0
 23 25  1  0  0  0  0
 25 42  1  0  0  0  0
 26 27  1  0  0  0  0
M  END
$$$$
