CHEMBL2023474
 OpenBabel04072215363D

 52 55  0  0  0  0  0  0  0  0999 V2000
    3.9802    7.8051   -6.4161 C   0  0  0  0  0  0  0  0  0  0  0  0
    3.6660    6.3416   -6.1565 C   0  0  0  0  0  0  0  0  0  0  0  0
    2.4969    6.1714   -5.3154 N   0  0  0  0  0  0  0  0  0  0  0  0
    2.4921    6.2016   -3.9535 C   0  0  0  0  0  0  0  0  0  0  0  0
    1.1830    6.0781   -3.5553 C   0  0  0  0  0  0  0  0  0  0  0  0
    0.6895    6.1088   -2.2566 N   0  0  0  0  0  0  0  0  0  0  0  0
    1.4364    6.5421   -1.1754 C   0  0  0  0  0  0  0  0  0  0  0  0
    2.5870    6.9806   -1.2456 O   0  0  0  0  0  0  0  0  0  0  0  0
    0.8024    6.4082    0.1961 C   0  0  0  0  0  0  0  0  0  0  0  0
   -0.6968    6.5558    0.3277 C   0  0  0  0  0  0  0  0  0  0  0  0
   -1.4473    5.3574    0.4300 C   0  0  0  0  0  0  0  0  0  0  0  0
   -2.8036    5.3616    0.7861 C   0  0  0  0  0  0  0  0  0  0  0  0
   -3.4567    6.5656    1.0164 C   0  0  0  0  0  0  0  0  0  0  0  0
   -4.7418    6.7272    1.4890 O   0  0  0  0  0  0  0  0  0  0  0  0
   -5.6975    5.7286    1.4535 C   0  0  0  0  0  0  0  0  0  0  0  0
   -5.9394    4.9708    0.3136 C   0  0  0  0  0  0  0  0  0  0  0  0
   -7.0119    4.0972    0.3329 C   0  0  0  0  0  0  0  0  0  0  0  0
   -7.8544    3.9534    1.3735 N   0  0  0  0  0  0  0  0  0  0  0  0
   -7.6611    4.7167    2.4589 C   0  0  0  0  0  0  0  0  0  0  0  0
   -8.5707    4.6222    3.5007 C   0  0  0  0  0  0  0  0  0  0  0  0
   -8.4419    5.4108    4.6366 C   0  0  0  0  0  0  0  0  0  0  0  0
   -9.3546    5.3213    5.6135 F   0  0  0  0  0  0  0  0  0  0  0  0
   -7.3881    6.3000    4.7666 C   0  0  0  0  0  0  0  0  0  0  0  0
   -6.4573    6.4067    3.7336 C   0  0  0  0  0  0  0  0  0  0  0  0
   -6.5810    5.6278    2.5586 C   0  0  0  0  0  0  0  0  0  0  0  0
   -2.7268    7.7565    0.8770 C   0  0  0  0  0  0  0  0  0  0  0  0
   -1.3640    7.7710    0.5194 C   0  0  0  0  0  0  0  0  0  0  0  0
   -0.8090    9.0218    0.5527 O   0  0  0  0  0  0  0  0  0  0  0  0
    0.1654    9.3592   -0.4277 C   0  0  0  0  0  0  0  0  0  0  0  0
    0.4791    5.9031   -4.7704 C   0  0  0  0  0  0  0  0  0  0  0  0
    1.2756    5.9670   -5.8459 N   0  0  0  0  0  0  0  0  0  0  0  0
    4.9167    7.8988   -6.9744 H   0  0  0  0  0  0  0  0  0  0  0  0
    4.0883    8.3624   -5.4790 H   0  0  0  0  0  0  0  0  0  0  0  0
    3.1846    8.2821   -6.9972 H   0  0  0  0  0  0  0  0  0  0  0  0
    4.5054    5.8636   -5.6389 H   0  0  0  0  0  0  0  0  0  0  0  0
    3.4956    5.8018   -7.0931 H   0  0  0  0  0  0  0  0  0  0  0  0
    3.4100    6.3238   -3.3969 H   0  0  0  0  0  0  0  0  0  0  0  0
   -0.2977    5.9182   -2.1360 H   0  0  0  0  0  0  0  0  0  0  0  0
    1.2801    7.1358    0.8643 H   0  0  0  0  0  0  0  0  0  0  0  0
    1.1177    5.4316    0.5854 H   0  0  0  0  0  0  0  0  0  0  0  0
   -0.9508    4.3958    0.3102 H   0  0  0  0  0  0  0  0  0  0  0  0
   -3.3029    4.4084    0.9327 H   0  0  0  0  0  0  0  0  0  0  0  0
   -5.3414    5.0698   -0.5831 H   0  0  0  0  0  0  0  0  0  0  0  0
   -7.2489    3.4808   -0.5299 H   0  0  0  0  0  0  0  0  0  0  0  0
   -9.4111    3.9389    3.4222 H   0  0  0  0  0  0  0  0  0  0  0  0
   -7.3022    6.9100    5.6600 H   0  0  0  0  0  0  0  0  0  0  0  0
   -5.6345    7.1099    3.8413 H   0  0  0  0  0  0  0  0  0  0  0  0
   -3.2177    8.7032    1.0997 H   0  0  0  0  0  0  0  0  0  0  0  0
    0.1501   10.4465   -0.5578 H   0  0  0  0  0  0  0  0  0  0  0  0
   -0.0433    8.9074   -1.4019 H   0  0  0  0  0  0  0  0  0  0  0  0
    1.1678    9.1087   -0.0716 H   0  0  0  0  0  0  0  0  0  0  0  0
   -0.5814    5.7554   -4.9250 H   0  0  0  0  0  0  0  0  0  0  0  0
  1  2  1  0  0  0  0
  1 32  1  0  0  0  0
  1 33  1  0  0  0  0
  1 34  1  0  0  0  0
  2  3  1  0  0  0  0
  2 35  1  0  0  0  0
  2 36  1  0  0  0  0
  3  4  1  0  0  0  0
  3 31  1  0  0  0  0
  4  5  2  0  0  0  0
  4 37  1  0  0  0  0
  5  6  1  0  0  0  0
  5 30  1  0  0  0  0
  6  7  1  0  0  0  0
  6 38  1  0  0  0  0
  7  8  2  0  0  0  0
  7  9  1  0  0  0  0
  9 10  1  0  0  0  0
  9 39  1  0  0  0  0
  9 40  1  0  0  0  0
 10 11  1  0  0  0  0
 10 27  2  0  0  0  0
 11 12  2  0  0  0  0
 11 41  1  0  0  0  0
 12 13  1  0  0  0  0
 12 42  1  0  0  0  0
 13 14  1  0  0  0  0
 13 26  2  0  0  0  0
 14 15  1  0  0  0  0
 15 16  1  0  0  0  0
 15 25  2  0  0  0  0
 16 17  2  0  0  0  0
 16 43  1  0  0  0  0
 17 18  1  0  0  0  0
 17 44  1  0  0  0  0
 18 19  2  0  0  0  0
 19 20  1  0  0  0  0
 19 25  1  0  0  0  0
 20 21  2  0  0  0  0
 20 45  1  0  0  0  0
 21 22  1  0  0  0  0
 21 23  1  0  0  0  0
 23 24  2  0  0  0  0
 23 46  1  0  0  0  0
 24 25  1  0  0  0  0
 24 47  1  0  0  0  0
 26 27  1  0  0  0  0
 26 48  1  0  0  0  0
 27 28  1  0  0  0  0
 28 29  1  0  0  0  0
 29 49  1  0  0  0  0
 29 50  1  0  0  0  0
 29 51  1  0  0  0  0
 30 31  2  0  0  0  0
 30 52  1  0  0  0  0
M  END
$$$$
