CHEMBL3908397
 OpenBabel04072215373D

 49 52  0  0  0  0  0  0  0  0999 V2000
    1.5479   -0.7229    3.6232 C   0  0  0  0  0  0  0  0  0  0  0  0
    0.2438   -0.5034    2.9159 C   0  0  0  0  0  0  0  0  0  0  0  0
   -0.3457    0.7545    2.9416 C   0  0  0  0  0  0  0  0  0  0  0  0
   -1.5641    0.9679    2.3068 C   0  0  0  0  0  0  0  0  0  0  0  0
   -2.2275   -0.0464    1.6093 C   0  0  0  0  0  0  0  0  0  0  0  0
   -3.4850    0.1570    0.9724 N   0  0  0  0  0  0  0  0  0  0  0  0
   -4.0997    1.3729    0.8440 C   0  0  0  0  0  0  0  0  0  0  0  0
   -3.6009    2.4422    1.1860 O   0  0  0  0  0  0  0  0  0  0  0  0
   -5.3661    1.3170    0.3046 N   0  0  0  0  0  0  0  0  0  0  0  0
   -6.0668    2.5233    0.0621 C   0  0  0  0  0  0  0  0  0  0  0  0
   -5.4164    3.6263   -0.5138 C   0  0  0  0  0  0  0  0  0  0  0  0
   -6.0974    4.8135   -0.7973 C   0  0  0  0  0  0  0  0  0  0  0  0
   -7.4691    4.8992   -0.5588 C   0  0  0  0  0  0  0  0  0  0  0  0
   -8.3298    5.8392   -1.4017 C   0  0  0  0  0  0  0  0  0  0  0  0
   -9.6617    5.4972   -1.6862 C   0  0  0  0  0  0  0  0  0  0  0  0
   -9.4712    4.5686   -2.7718 C   0  0  0  0  0  0  0  0  0  0  0  0
  -10.0993    3.3785   -3.1704 C   0  0  0  0  0  0  0  0  0  0  0  0
   -9.5185    2.6313   -4.2062 C   0  0  0  0  0  0  0  0  0  0  0  0
   -8.3891    3.0958   -4.8863 C   0  0  0  0  0  0  0  0  0  0  0  0
   -7.7812    4.2951   -4.5443 C   0  0  0  0  0  0  0  0  0  0  0  0
   -8.3040    4.9678   -3.4341 C   0  0  0  0  0  0  0  0  0  0  0  0
   -7.9075    6.0993   -2.7358 N   0  0  0  0  0  0  0  0  0  0  0  0
   -7.1749    7.1807   -3.2422 C   0  0  0  0  0  0  0  0  0  0  0  0
   -7.5814    8.3738   -2.7194 N   0  0  0  0  0  0  0  0  0  0  0  0
   -6.3922    7.0506   -4.1715 O   0  0  0  0  0  0  0  0  0  0  0  0
   -8.0880    3.8376    0.1428 C   0  0  0  0  0  0  0  0  0  0  0  0
   -7.4072    2.6407    0.4095 C   0  0  0  0  0  0  0  0  0  0  0  0
   -1.6303   -1.3082    1.5730 C   0  0  0  0  0  0  0  0  0  0  0  0
   -0.4037   -1.5351    2.2218 C   0  0  0  0  0  0  0  0  0  0  0  0
    1.8759    0.1866    4.1351 H   0  0  0  0  0  0  0  0  0  0  0  0
    2.3236   -1.0023    2.9082 H   0  0  0  0  0  0  0  0  0  0  0  0
    1.4411   -1.5079    4.3817 H   0  0  0  0  0  0  0  0  0  0  0  0
    0.1275    1.5862    3.4582 H   0  0  0  0  0  0  0  0  0  0  0  0
   -1.9560    1.9795    2.3900 H   0  0  0  0  0  0  0  0  0  0  0  0
   -3.8744   -0.6256    0.4648 H   0  0  0  0  0  0  0  0  0  0  0  0
   -5.9163    0.4990    0.5574 H   0  0  0  0  0  0  0  0  0  0  0  0
   -4.3695    3.5554   -0.8029 H   0  0  0  0  0  0  0  0  0  0  0  0
   -5.5571    5.6028   -1.3118 H   0  0  0  0  0  0  0  0  0  0  0  0
  -10.4281    5.3617   -0.9348 H   0  0  0  0  0  0  0  0  0  0  0  0
  -10.9540    2.9945   -2.6247 H   0  0  0  0  0  0  0  0  0  0  0  0
   -9.9395    1.6677   -4.4635 H   0  0  0  0  0  0  0  0  0  0  0  0
   -7.9623    2.4978   -5.6866 H   0  0  0  0  0  0  0  0  0  0  0  0
   -6.8819    4.6518   -5.0466 H   0  0  0  0  0  0  0  0  0  0  0  0
   -8.4847    8.4399   -2.2637 H   0  0  0  0  0  0  0  0  0  0  0  0
   -7.3053    9.1788   -3.2691 H   0  0  0  0  0  0  0  0  0  0  0  0
   -9.1457    3.8774    0.3867 H   0  0  0  0  0  0  0  0  0  0  0  0
   -7.9402    1.8195    0.8796 H   0  0  0  0  0  0  0  0  0  0  0  0
   -2.1009   -2.1353    1.0467 H   0  0  0  0  0  0  0  0  0  0  0  0
    0.0452   -2.5260    2.1852 H   0  0  0  0  0  0  0  0  0  0  0  0
  1  2  1  0  0  0  0
  1 30  1  0  0  0  0
  1 31  1  0  0  0  0
  1 32  1  0  0  0  0
  2  3  1  0  0  0  0
  2 29  2  0  0  0  0
  3  4  2  0  0  0  0
  3 33  1  0  0  0  0
  4  5  1  0  0  0  0
  4 34  1  0  0  0  0
  5  6  1  0  0  0  0
  5 28  2  0  0  0  0
  6  7  1  0  0  0  0
  6 35  1  0  0  0  0
  7  8  2  0  0  0  0
  7  9  1  0  0  0  0
  9 10  1  0  0  0  0
  9 36  1  0  0  0  0
 10 11  1  0  0  0  0
 10 27  2  0  0  0  0
 11 12  2  0  0  0  0
 11 37  1  0  0  0  0
 12 13  1  0  0  0  0
 12 38  1  0  0  0  0
 13 14  1  0  0  0  0
 13 26  2  0  0  0  0
 14 15  2  0  0  0  0
 14 22  1  0  0  0  0
 15 16  1  0  0  0  0
 15 39  1  0  0  0  0
 16 17  1  0  0  0  0
 16 21  2  0  0  0  0
 17 18  2  0  0  0  0
 17 40  1  0  0  0  0
 18 19  1  0  0  0  0
 18 41  1  0  0  0  0
 19 20  2  0  0  0  0
 19 42  1  0  0  0  0
 20 21  1  0  0  0  0
 20 43  1  0  0  0  0
 21 22  1  0  0  0  0
 22 23  1  0  0  0  0
 23 24  1  0  0  0  0
 23 25  2  0  0  0  0
 24 44  1  0  0  0  0
 24 45  1  0  0  0  0
 26 27  1  0  0  0  0
 26 46  1  0  0  0  0
 27 47  1  0  0  0  0
 28 29  1  0  0  0  0
 28 48  1  0  0  0  0
 29 49  1  0  0  0  0
M  END
$$$$
