CHEMBL3648071
 OpenBabel04072215373D

 44 45  0  0  1  0  0  0  0  0999 V2000
    3.9171    0.1294   -2.3358 C   0  0  0  0  0  0  0  0  0  0  0  0
    4.1709   -0.1480   -0.8588 C   0  0  1  0  0  0  0  0  0  0  0  0
    5.4355   -0.8212   -0.7391 O   0  0  0  0  0  0  0  0  0  0  0  0
    4.1901    1.1374    0.0159 C   0  0  1  0  0  0  0  0  0  0  0  0
    2.8307    1.8399    0.0163 C   0  0  0  0  0  0  0  0  0  0  0  0
    4.4978    0.7515    1.3970 N   0  0  0  0  0  0  0  0  0  0  0  0
    5.1694    1.6646    2.2269 C   0  0  0  0  0  0  0  0  0  0  0  0
    5.9302    2.6373    1.6720 N   0  0  0  0  0  0  0  0  0  0  0  0
    6.6255    3.4348    2.5009 C   0  0  0  0  0  0  0  0  0  0  0  0
    7.5333    4.3355    1.9384 N   0  0  0  0  0  0  0  0  0  0  0  0
    8.7069    4.8311    2.5348 C   0  0  0  0  0  0  0  0  0  0  0  0
    9.3867    4.1206    3.5378 C   0  0  0  0  0  0  0  0  0  0  0  0
   10.4579    4.6828    4.2326 C   0  0  0  0  0  0  0  0  0  0  0  0
   10.8643    5.9772    3.9266 C   0  0  0  0  0  0  0  0  0  0  0  0
   12.1198    6.7503    4.9300 S   0  0  3  0  0  0  0  0  0  0  0  0
   13.4015    7.1467    3.7709 C   0  0  0  0  0  0  0  0  0  0  0  0
   11.4917    8.0629    5.4388 N   0  0  0  0  0  0  0  0  0  0  0  0
   12.6755    5.7227    5.7872 O   0  0  0  0  0  0  0  0  0  0  0  0
   10.2419    6.6880    2.8946 C   0  0  0  0  0  0  0  0  0  0  0  0
    9.1743    6.1067    2.1946 C   0  0  0  0  0  0  0  0  0  0  0  0
    6.5150    3.3903    3.8385 N   0  0  0  0  0  0  0  0  0  0  0  0
    5.7423    2.4308    4.3667 C   0  0  0  0  0  0  0  0  0  0  0  0
    5.0808    1.5047    3.6055 C   0  0  0  0  0  0  0  0  0  0  0  0
    4.0925    0.1368    4.4529 Br  0  0  0  0  0  0  0  0  0  0  0  0
    4.0753   -0.7772   -2.9296 H   0  0  0  0  0  0  0  0  0  0  0  0
    4.6153    0.8825   -2.7174 H   0  0  0  0  0  0  0  0  0  0  0  0
    2.8965    0.4795   -2.5129 H   0  0  0  0  0  0  0  0  0  0  0  0
    3.4131   -0.8471   -0.4857 H   0  0  0  0  0  0  0  0  0  0  0  0
    6.1158   -0.2366   -1.1176 H   0  0  0  0  0  0  0  0  0  0  0  0
    4.9595    1.8050   -0.3899 H   0  0  0  0  0  0  0  0  0  0  0  0
    2.0545    1.1937    0.4442 H   0  0  0  0  0  0  0  0  0  0  0  0
    2.5181    2.1237   -0.9920 H   0  0  0  0  0  0  0  0  0  0  0  0
    2.8626    2.7534    0.6201 H   0  0  0  0  0  0  0  0  0  0  0  0
    4.9728   -0.1527    1.4463 H   0  0  0  0  0  0  0  0  0  0  0  0
    7.5075    4.3132    0.9330 H   0  0  0  0  0  0  0  0  0  0  0  0
    9.0687    3.1173    3.8140 H   0  0  0  0  0  0  0  0  0  0  0  0
   10.9289    4.1171    5.0337 H   0  0  0  0  0  0  0  0  0  0  0  0
   13.0258    7.8444    3.0224 H   0  0  0  0  0  0  0  0  0  0  0  0
   13.7453    6.2239    3.2988 H   0  0  0  0  0  0  0  0  0  0  0  0
   14.2259    7.5984    4.3264 H   0  0  0  0  0  0  0  0  0  0  0  0
   11.4962    8.8174    4.7548 H   0  0  0  0  0  0  0  0  0  0  0  0
   10.5288    7.7082    2.6596 H   0  0  0  0  0  0  0  0  0  0  0  0
    8.6588    6.6878    1.4343 H   0  0  0  0  0  0  0  0  0  0  0  0
    5.6915    2.4352    5.4507 H   0  0  0  0  0  0  0  0  0  0  0  0
  1  2  1  0  0  0  0
  1 25  1  0  0  0  0
  1 26  1  0  0  0  0
  1 27  1  0  0  0  0
  2  3  1  0  0  0  0
  2  4  1  0  0  0  0
  2 28  1  1  0  0  0
  3 29  1  0  0  0  0
  4  5  1  0  0  0  0
  4  6  1  0  0  0  0
  4 30  1  6  0  0  0
  5 31  1  0  0  0  0
  5 32  1  0  0  0  0
  5 33  1  0  0  0  0
  6  7  1  0  0  0  0
  6 34  1  0  0  0  0
  7  8  1  0  0  0  0
  7 23  2  0  0  0  0
  8  9  2  0  0  0  0
  9 10  1  0  0  0  0
  9 21  1  0  0  0  0
 10 11  1  0  0  0  0
 10 35  1  0  0  0  0
 11 12  1  0  0  0  0
 11 20  2  0  0  0  0
 12 13  2  0  0  0  0
 12 36  1  0  0  0  0
 13 14  1  0  0  0  0
 13 37  1  0  0  0  0
 14 15  1  0  0  0  0
 14 19  2  0  0  0  0
 15 16  1  0  0  0  0
 15 17  2  0  0  0  0
 15 18  2  0  0  0  0
 16 38  1  0  0  0  0
 16 39  1  0  0  0  0
 16 40  1  0  0  0  0
 17 41  1  0  0  0  0
 19 20  1  0  0  0  0
 19 42  1  0  0  0  0
 20 43  1  0  0  0  0
 21 22  2  0  0  0  0
 22 23  1  0  0  0  0
 22 44  1  0  0  0  0
 23 24  1  0  0  0  0
M  END
$$$$
