CHEMBL3648123
 OpenBabel04072215373D

 50 51  0  0  1  0  0  0  0  0999 V2000
   21.7623    3.6806   -0.6784 C   0  0  0  0  0  0  0  0  0  0  0  0
   21.3544    2.8272   -1.8631 C   0  0  0  0  0  0  0  0  0  0  0  0
   19.7768    3.3292   -2.5310 S   0  0  3  0  0  0  0  0  0  0  0  0
   18.7052    3.1580   -1.4359 N   0  0  0  0  0  0  0  0  0  0  0  0
   19.9813    4.5680   -3.2586 O   0  0  0  0  0  0  0  0  0  0  0  0
   19.4681    2.0615   -3.7479 C   0  0  0  0  0  0  0  0  0  0  0  0
   18.7668    0.9073   -3.3863 C   0  0  0  0  0  0  0  0  0  0  0  0
   18.5071   -0.0734   -4.3464 C   0  0  0  0  0  0  0  0  0  0  0  0
   18.9440    0.0858   -5.6670 C   0  0  0  0  0  0  0  0  0  0  0  0
   18.7457   -0.8957   -6.6394 N   0  0  0  0  0  0  0  0  0  0  0  0
   17.6333   -1.6874   -6.8953 C   0  0  0  0  0  0  0  0  0  0  0  0
   17.8735   -2.7753   -7.6301 N   0  0  0  0  0  0  0  0  0  0  0  0
   16.7926   -3.4155   -8.1045 C   0  0  0  0  0  0  0  0  0  0  0  0
   15.4866   -3.0175   -7.8908 C   0  0  0  0  0  0  0  0  0  0  0  0
   14.1491   -4.0170   -8.7668 Br  0  0  0  0  0  0  0  0  0  0  0  0
   15.3138   -1.9499   -7.0264 C   0  0  0  0  0  0  0  0  0  0  0  0
   14.1547   -1.4245   -6.5341 N   0  0  0  0  0  0  0  0  0  0  0  0
   12.7307   -1.5319   -6.8752 C   0  0  2  0  0  0  0  0  0  0  0  0
   12.1805   -0.1436   -7.2200 C   0  0  0  0  0  0  0  0  0  0  0  0
   11.9729   -2.2155   -5.6813 C   0  0  0  0  0  0  0  0  0  0  0  0
   11.8154   -1.2890   -4.4678 C   0  0  0  0  0  0  0  0  0  0  0  0
   10.5929   -2.7427   -6.0857 C   0  0  0  0  0  0  0  0  0  0  0  0
   12.7083   -3.3778   -5.2557 O   0  0  0  0  0  0  0  0  0  0  0  0
   16.3943   -1.3003   -6.5324 N   0  0  0  0  0  0  0  0  0  0  0  0
   19.6741    1.2370   -6.0004 C   0  0  0  0  0  0  0  0  0  0  0  0
   19.9183    2.2365   -5.0562 C   0  0  0  0  0  0  0  0  0  0  0  0
   22.7466    3.3755   -0.3110 H   0  0  0  0  0  0  0  0  0  0  0  0
   21.0481    3.5784    0.1450 H   0  0  0  0  0  0  0  0  0  0  0  0
   21.8086    4.7396   -0.9513 H   0  0  0  0  0  0  0  0  0  0  0  0
   21.2811    1.7763   -1.5676 H   0  0  0  0  0  0  0  0  0  0  0  0
   22.0929    2.9177   -2.6663 H   0  0  0  0  0  0  0  0  0  0  0  0
   18.6742    3.9803   -0.8311 H   0  0  0  0  0  0  0  0  0  0  0  0
   18.4151    0.7591   -2.3666 H   0  0  0  0  0  0  0  0  0  0  0  0
   17.9689   -0.9701   -4.0538 H   0  0  0  0  0  0  0  0  0  0  0  0
   19.5816   -1.3779   -6.9436 H   0  0  0  0  0  0  0  0  0  0  0  0
   17.0282   -4.2949   -8.6991 H   0  0  0  0  0  0  0  0  0  0  0  0
   14.3810   -0.7175   -5.8357 H   0  0  0  0  0  0  0  0  0  0  0  0
   12.5927   -2.1392   -7.7673 H   0  0  0  0  0  0  0  0  0  0  0  0
   12.3023    0.5683   -6.3974 H   0  0  0  0  0  0  0  0  0  0  0  0
   11.1163   -0.1929   -7.4703 H   0  0  0  0  0  0  0  0  0  0  0  0
   12.6981    0.2783   -8.0875 H   0  0  0  0  0  0  0  0  0  0  0  0
   10.9797   -0.5924   -4.6016 H   0  0  0  0  0  0  0  0  0  0  0  0
   12.7167   -0.6928   -4.2919 H   0  0  0  0  0  0  0  0  0  0  0  0
   11.6405   -1.8638   -3.5525 H   0  0  0  0  0  0  0  0  0  0  0  0
    9.9117   -1.9428   -6.3886 H   0  0  0  0  0  0  0  0  0  0  0  0
   10.1338   -3.2805   -5.2461 H   0  0  0  0  0  0  0  0  0  0  0  0
   10.6725   -3.4675   -6.9034 H   0  0  0  0  0  0  0  0  0  0  0  0
   13.5455   -3.3685   -5.7544 H   0  0  0  0  0  0  0  0  0  0  0  0
   20.0229    1.3764   -7.0223 H   0  0  0  0  0  0  0  0  0  0  0  0
   20.4473    3.1422   -5.3532 H   0  0  0  0  0  0  0  0  0  0  0  0
  1  2  1  0  0  0  0
  1 27  1  0  0  0  0
  1 28  1  0  0  0  0
  1 29  1  0  0  0  0
  2  3  1  0  0  0  0
  2 30  1  0  0  0  0
  2 31  1  0  0  0  0
  3  4  2  0  0  0  0
  3  5  2  0  0  0  0
  3  6  1  0  0  0  0
  4 32  1  0  0  0  0
  6  7  1  0  0  0  0
  6 26  2  0  0  0  0
  7  8  2  0  0  0  0
  7 33  1  0  0  0  0
  8  9  1  0  0  0  0
  8 34  1  0  0  0  0
  9 10  1  0  0  0  0
  9 25  2  0  0  0  0
 10 11  1  0  0  0  0
 10 35  1  0  0  0  0
 11 12  1  0  0  0  0
 11 24  2  0  0  0  0
 12 13  2  0  0  0  0
 13 14  1  0  0  0  0
 13 36  1  0  0  0  0
 14 15  1  0  0  0  0
 14 16  2  0  0  0  0
 16 17  1  0  0  0  0
 16 24  1  0  0  0  0
 17 37  1  0  0  0  0
 18 20  1  0  0  0  0
 18 19  1  0  0  0  0
 18 17  1  0  0  0  0
 18 38  1  6  0  0  0
 19 39  1  0  0  0  0
 19 40  1  0  0  0  0
 19 41  1  0  0  0  0
 20 21  1  0  0  0  0
 20 22  1  0  0  0  0
 20 23  1  0  0  0  0
 21 42  1  0  0  0  0
 21 43  1  0  0  0  0
 21 44  1  0  0  0  0
 22 45  1  0  0  0  0
 22 46  1  0  0  0  0
 22 47  1  0  0  0  0
 23 48  1  0  0  0  0
 25 26  1  0  0  0  0
 25 49  1  0  0  0  0
 26 50  1  0  0  0  0
M  END
$$$$
