CHEMBL4287439
 OpenBabel04072215383D

 69 73  0  0  0  0  0  0  0  0999 V2000
    0.4642   -0.5380    0.7488 C   0  0  0  0  0  0  0  0  0  0  0  0
    1.5682   -0.5187    1.7491 C   0  0  0  0  0  0  0  0  0  0  0  0
    1.7842    0.4251    2.8053 C   0  0  0  0  0  0  0  0  0  0  0  0
    1.0136    1.5086    3.1117 O   0  0  0  0  0  0  0  0  0  0  0  0
    1.5320    2.2432    4.2276 C   0  0  0  0  0  0  0  0  0  0  0  0
    0.7101    3.4787    4.5648 C   0  0  0  0  0  0  0  0  0  0  0  0
    1.3470    4.1723    5.7680 C   0  0  0  0  0  0  0  0  0  0  0  0
    0.4690    5.6337    6.2606 S   0  0  0  0  0  0  0  0  0  0  0  0
    1.4281    6.2181    7.6448 C   0  0  0  0  0  0  0  0  0  0  0  0
    0.5943    6.6168    5.2012 O   0  0  0  0  0  0  0  0  0  0  0  0
   -0.8260    5.2323    6.7679 O   0  0  0  0  0  0  0  0  0  0  0  0
    2.9241    0.0363    3.4773 C   0  0  0  0  0  0  0  0  0  0  0  0
    3.4281   -1.0647    2.8647 N   0  0  0  0  0  0  0  0  0  0  0  0
    4.5551   -1.6937    3.2327 N   0  0  0  0  0  0  0  0  0  0  0  0
    4.8487   -2.7264    2.5076 C   0  0  0  0  0  0  0  0  0  0  0  0
    4.1194   -3.2206    1.4619 N   0  0  0  0  0  0  0  0  0  0  0  0
    3.0164   -2.6139    1.1683 C   0  0  0  0  0  0  0  0  0  0  0  0
    2.0858   -3.0908    0.2625 O   0  0  0  0  0  0  0  0  0  0  0  0
    2.0888   -4.4889    0.1288 C   0  0  0  0  0  0  0  0  0  0  0  0
    2.1970   -5.3177    1.2481 C   0  0  0  0  0  0  0  0  0  0  0  0
    2.1888   -6.6967    1.0927 C   0  0  0  0  0  0  0  0  0  0  0  0
    1.9949   -7.2634   -0.1664 C   0  0  0  0  0  0  0  0  0  0  0  0
    1.8737   -8.6502   -0.3410 N   0  0  0  0  0  0  0  0  0  0  0  0
    1.5689   -9.5557    0.6578 C   0  0  0  0  0  0  0  0  0  0  0  0
    1.3481   -9.3275    1.8375 O   0  0  0  0  0  0  0  0  0  0  0  0
    1.5079  -10.9725    0.1922 C   0  0  0  0  0  0  0  0  0  0  0  0
    2.8146  -11.6702    0.3266 C   0  0  0  0  0  0  0  0  0  0  0  0
    3.6423  -11.4819   -0.5539 O   0  0  0  0  0  0  0  0  0  0  0  0
    2.9958  -12.4482    1.4569 N   0  0  0  0  0  0  0  0  0  0  0  0
    4.2697  -12.9405    1.7970 C   0  0  0  0  0  0  0  0  0  0  0  0
    5.4098  -12.1425    1.6193 C   0  0  0  0  0  0  0  0  0  0  0  0
    6.6823  -12.6720    1.8141 C   0  0  0  0  0  0  0  0  0  0  0  0
    6.8075  -14.0018    2.1860 C   0  0  0  0  0  0  0  0  0  0  0  0
    8.0286  -14.5400    2.2975 F   0  0  0  0  0  0  0  0  0  0  0  0
    5.6836  -14.7864    2.4336 C   0  0  0  0  0  0  0  0  0  0  0  0
    4.4036  -14.2453    2.2733 C   0  0  0  0  0  0  0  0  0  0  0  0
    0.6829  -11.3164   -1.0497 C   0  0  0  0  0  0  0  0  0  0  0  0
    0.1666  -11.6804    0.3058 C   0  0  0  0  0  0  0  0  0  0  0  0
    1.8880   -6.4348   -1.2893 C   0  0  0  0  0  0  0  0  0  0  0  0
    1.9185   -5.0489   -1.1321 C   0  0  0  0  0  0  0  0  0  0  0  0
    1.7546   -4.2659   -2.2077 F   0  0  0  0  0  0  0  0  0  0  0  0
    2.6149   -1.4317    1.8409 C   0  0  0  0  0  0  0  0  0  0  0  0
   -0.2202    0.3051    0.8754 H   0  0  0  0  0  0  0  0  0  0  0  0
   -0.1180   -1.4623    0.8348 H   0  0  0  0  0  0  0  0  0  0  0  0
    0.8733   -0.4903   -0.2670 H   0  0  0  0  0  0  0  0  0  0  0  0
    2.5550    2.5738    4.0024 H   0  0  0  0  0  0  0  0  0  0  0  0
    1.5402    1.5902    5.1107 H   0  0  0  0  0  0  0  0  0  0  0  0
   -0.3267    3.1952    4.7779 H   0  0  0  0  0  0  0  0  0  0  0  0
    0.6720    4.1517    3.7006 H   0  0  0  0  0  0  0  0  0  0  0  0
    2.3754    4.4745    5.5406 H   0  0  0  0  0  0  0  0  0  0  0  0
    1.3652    3.5015    6.6347 H   0  0  0  0  0  0  0  0  0  0  0  0
    2.4399    6.4472    7.3042 H   0  0  0  0  0  0  0  0  0  0  0  0
    1.4464    5.4434    8.4141 H   0  0  0  0  0  0  0  0  0  0  0  0
    0.9517    7.1202    8.0343 H   0  0  0  0  0  0  0  0  0  0  0  0
    3.4441    0.4396    4.3324 H   0  0  0  0  0  0  0  0  0  0  0  0
    5.7571   -3.2959    2.7672 H   0  0  0  0  0  0  0  0  0  0  0  0
    2.3130   -4.9146    2.2499 H   0  0  0  0  0  0  0  0  0  0  0  0
    2.3507   -7.3042    1.9785 H   0  0  0  0  0  0  0  0  0  0  0  0
    1.9373   -9.0071   -1.2870 H   0  0  0  0  0  0  0  0  0  0  0  0
    2.1793  -12.8438    1.9036 H   0  0  0  0  0  0  0  0  0  0  0  0
    5.3151  -11.1000    1.3218 H   0  0  0  0  0  0  0  0  0  0  0  0
    7.5647  -12.0629    1.6489 H   0  0  0  0  0  0  0  0  0  0  0  0
    5.8157  -15.8253    2.7181 H   0  0  0  0  0  0  0  0  0  0  0  0
    3.5359  -14.8771    2.4362 H   0  0  0  0  0  0  0  0  0  0  0  0
    1.0399  -12.1169   -1.6900 H   0  0  0  0  0  0  0  0  0  0  0  0
    0.1886  -10.5170   -1.5897 H   0  0  0  0  0  0  0  0  0  0  0  0
    0.1301  -12.7281    0.5692 H   0  0  0  0  0  0  0  0  0  0  0  0
   -0.6766  -11.1053    0.6817 H   0  0  0  0  0  0  0  0  0  0  0  0
    1.7353   -6.8417   -2.2838 H   0  0  0  0  0  0  0  0  0  0  0  0
  1  2  1  0  0  0  0
  1 43  1  0  0  0  0
  1 44  1  0  0  0  0
  1 45  1  0  0  0  0
  2  3  1  0  0  0  0
  2 42  2  0  0  0  0
  3  4  1  0  0  0  0
  3 12  2  0  0  0  0
  4  5  1  0  0  0  0
  5  6  1  0  0  0  0
  5 46  1  0  0  0  0
  5 47  1  0  0  0  0
  6  7  1  0  0  0  0
  6 48  1  0  0  0  0
  6 49  1  0  0  0  0
  7  8  1  0  0  0  0
  7 50  1  0  0  0  0
  7 51  1  0  0  0  0
  8  9  1  0  0  0  0
  8 10  2  0  0  0  0
  8 11  2  0  0  0  0
  9 52  1  0  0  0  0
  9 53  1  0  0  0  0
  9 54  1  0  0  0  0
 12 13  1  0  0  0  0
 12 55  1  0  0  0  0
 13 14  1  0  0  0  0
 13 42  1  0  0  0  0
 14 15  2  0  0  0  0
 15 16  1  0  0  0  0
 15 56  1  0  0  0  0
 16 17  2  0  0  0  0
 17 18  1  0  0  0  0
 17 42  1  0  0  0  0
 18 19  1  0  0  0  0
 19 20  1  0  0  0  0
 19 40  2  0  0  0  0
 20 21  2  0  0  0  0
 20 57  1  0  0  0  0
 21 22  1  0  0  0  0
 21 58  1  0  0  0  0
 22 23  1  0  0  0  0
 22 39  2  0  0  0  0
 23 24  1  0  0  0  0
 23 59  1  0  0  0  0
 24 25  2  0  0  0  0
 24 26  1  0  0  0  0
 26 27  1  0  0  0  0
 26 37  1  0  0  0  0
 26 38  1  0  0  0  0
 27 28  2  0  0  0  0
 27 29  1  0  0  0  0
 29 30  1  0  0  0  0
 29 60  1  0  0  0  0
 30 31  1  0  0  0  0
 30 36  2  0  0  0  0
 31 32  2  0  0  0  0
 31 61  1  0  0  0  0
 32 33  1  0  0  0  0
 32 62  1  0  0  0  0
 33 34  1  0  0  0  0
 33 35  2  0  0  0  0
 35 36  1  0  0  0  0
 35 63  1  0  0  0  0
 36 64  1  0  0  0  0
 37 38  1  0  0  0  0
 37 65  1  0  0  0  0
 37 66  1  0  0  0  0
 38 67  1  0  0  0  0
 38 68  1  0  0  0  0
 39 40  1  0  0  0  0
 39 69  1  0  0  0  0
 40 41  1  0  0  0  0
M  END
$$$$
