CHEMBL1998121
 OpenBabel04072215363D

 40 42  0  0  1  0  0  0  0  0999 V2000
    2.7981   -1.0653   -0.9725 N   0  0  0  0  0  0  0  0  0  0  0  0
    2.4120   -0.0402   -0.0096 C   0  0  0  0  0  0  0  0  0  0  0  0
    3.0435   -0.2805    1.3579 C   0  0  0  0  0  0  0  0  0  0  0  0
    4.5864   -0.3414    1.3939 C   0  0  3  0  0  0  0  0  0  0  0  0
    5.2299    0.9977    0.9745 C   0  0  0  0  0  0  0  0  0  0  0  0
    5.3891    1.9059    1.7869 O   0  0  0  0  0  0  0  0  0  0  0  0
    5.5586    1.0951   -0.3744 N   0  0  0  0  0  0  0  0  0  0  0  0
    6.2652    2.1840   -0.9589 C   0  0  0  0  0  0  0  0  0  0  0  0
    7.0644    3.0478   -0.1960 C   0  0  0  0  0  0  0  0  0  0  0  0
    7.7195    4.1553   -0.7553 C   0  0  0  0  0  0  0  0  0  0  0  0
    7.5436    4.3676   -2.1194 C   0  0  0  0  0  0  0  0  0  0  0  0
    8.0071    5.3552   -2.9500 N   0  0  0  0  0  0  0  0  0  0  0  0
    7.6186    5.2153   -4.2295 N   0  0  0  0  0  0  0  0  0  0  0  0
    6.8809    4.0997   -4.2103 C   0  0  0  0  0  0  0  0  0  0  0  0
    6.7935    3.5190   -2.9229 C   0  0  0  0  0  0  0  0  0  0  0  0
    6.1633    2.3923   -2.3430 C   0  0  0  0  0  0  0  0  0  0  0  0
    5.0247   -0.7613    2.8065 C   0  0  0  0  0  0  0  0  0  0  0  0
    4.7017    0.0192    3.9320 C   0  0  0  0  0  0  0  0  0  0  0  0
    5.0813   -0.3714    5.2160 C   0  0  0  0  0  0  0  0  0  0  0  0
    5.7872   -1.5592    5.4047 C   0  0  0  0  0  0  0  0  0  0  0  0
    6.2250   -1.9869    7.0201 Cl  0  0  0  0  0  0  0  0  0  0  0  0
    6.1106   -2.3538    4.2992 C   0  0  0  0  0  0  0  0  0  0  0  0
    6.9639   -3.8493    4.4580 Cl  0  0  0  0  0  0  0  0  0  0  0  0
    5.7334   -1.9546    3.0084 C   0  0  0  0  0  0  0  0  0  0  0  0
    2.2585   -0.9215   -1.8299 H   0  0  0  0  0  0  0  0  0  0  0  0
    2.4815   -1.9762   -0.6280 H   0  0  0  0  0  0  0  0  0  0  0  0
    1.3211   -0.0503    0.1026 H   0  0  0  0  0  0  0  0  0  0  0  0
    2.6844    0.9465   -0.3951 H   0  0  0  0  0  0  0  0  0  0  0  0
    2.6426   -1.2199    1.7642 H   0  0  0  0  0  0  0  0  0  0  0  0
    2.6841    0.5142    2.0246 H   0  0  0  0  0  0  0  0  0  0  0  0
    4.9348   -1.1135    0.6949 H   0  0  0  0  0  0  0  0  0  0  0  0
    5.1175    0.4314   -1.0062 H   0  0  0  0  0  0  0  0  0  0  0  0
    7.2171    2.8765    0.8655 H   0  0  0  0  0  0  0  0  0  0  0  0
    8.3217    4.8142   -0.1383 H   0  0  0  0  0  0  0  0  0  0  0  0
    8.5827    6.1502   -2.7032 H   0  0  0  0  0  0  0  0  0  0  0  0
    6.4307    3.7615   -5.1325 H   0  0  0  0  0  0  0  0  0  0  0  0
    5.5724    1.7311   -2.9712 H   0  0  0  0  0  0  0  0  0  0  0  0
    4.1614    0.9583    3.8169 H   0  0  0  0  0  0  0  0  0  0  0  0
    4.8240    0.2598    6.0637 H   0  0  0  0  0  0  0  0  0  0  0  0
    5.9916   -2.5859    2.1599 H   0  0  0  0  0  0  0  0  0  0  0  0
  1  2  1  0  0  0  0
  1 25  1  0  0  0  0
  1 26  1  0  0  0  0
  2  3  1  0  0  0  0
  2 27  1  0  0  0  0
  2 28  1  0  0  0  0
  3  4  1  0  0  0  0
  3 29  1  0  0  0  0
  3 30  1  0  0  0  0
  4  5  1  0  0  0  0
  4 17  1  0  0  0  0
  4 31  1  0  0  0  0
  5  6  2  0  0  0  0
  5  7  1  0  0  0  0
  7  8  1  0  0  0  0
  7 32  1  0  0  0  0
  8  9  1  0  0  0  0
  8 16  2  0  0  0  0
  9 10  2  0  0  0  0
  9 33  1  0  0  0  0
 10 11  1  0  0  0  0
 10 34  1  0  0  0  0
 11 12  1  0  0  0  0
 11 15  2  0  0  0  0
 12 13  1  0  0  0  0
 12 35  1  0  0  0  0
 13 14  2  0  0  0  0
 14 15  1  0  0  0  0
 14 36  1  0  0  0  0
 15 16  1  0  0  0  0
 16 37  1  0  0  0  0
 17 18  1  0  0  0  0
 17 24  2  0  0  0  0
 18 19  2  0  0  0  0
 18 38  1  0  0  0  0
 19 20  1  0  0  0  0
 19 39  1  0  0  0  0
 20 21  1  0  0  0  0
 20 22  2  0  0  0  0
 22 23  1  0  0  0  0
 22 24  1  0  0  0  0
 24 40  1  0  0  0  0
M  END
$$$$
