CHEMBL3936673
 OpenBabel04072215373D

 65 69  0  0  0  0  0  0  0  0999 V2000
   10.5444   -4.2586   -6.2925 C   0  0  0  0  0  0  0  0  0  0  0  0
    9.3304   -4.1868   -5.3789 C   0  0  0  0  0  0  0  0  0  0  0  0
    9.4328   -3.0635   -4.3744 C   0  0  0  0  0  0  0  0  0  0  0  0
   10.0010   -3.3014   -3.1364 C   0  0  0  0  0  0  0  0  0  0  0  0
   10.0565   -2.2367   -2.2682 C   0  0  0  0  0  0  0  0  0  0  0  0
    9.5997   -1.0094   -2.5701 N   0  0  0  0  0  0  0  0  0  0  0  0
    9.0898   -0.8753   -3.8042 C   0  0  0  0  0  0  0  0  0  0  0  0
    8.6494    0.4452   -4.1437 C   0  0  0  0  0  0  0  0  0  0  0  0
    8.3128    1.5778   -4.3559 C   0  0  0  0  0  0  0  0  0  0  0  0
    7.8976    2.9796   -4.5721 C   0  0  0  0  0  0  0  0  0  0  0  0
    8.9547    3.9573   -4.1791 N   0  0  0  0  0  0  0  0  0  0  0  0
    8.7041    4.6241   -2.9455 C   0  0  0  0  0  0  0  0  0  0  0  0
    8.1024    3.9611   -1.8520 C   0  0  0  0  0  0  0  0  0  0  0  0
    7.7460    4.6427   -0.6854 C   0  0  0  0  0  0  0  0  0  0  0  0
    7.1243    4.1069    0.4104 O   0  0  0  0  0  0  0  0  0  0  0  0
    6.8061    2.7219    0.3737 C   0  0  0  0  0  0  0  0  0  0  0  0
    8.0147    6.0060   -0.5803 C   0  0  0  0  0  0  0  0  0  0  0  0
    8.6364    6.6871   -1.6255 C   0  0  0  0  0  0  0  0  0  0  0  0
    8.9396    8.0235   -1.6259 O   0  0  0  0  0  0  0  0  0  0  0  0
    8.6050    8.7557   -0.4503 C   0  0  0  0  0  0  0  0  0  0  0  0
    8.9772    5.9936   -2.7970 C   0  0  0  0  0  0  0  0  0  0  0  0
   10.0964    4.0504   -5.0275 C   0  0  0  0  0  0  0  0  0  0  0  0
   10.0086    3.7066   -6.3833 C   0  0  0  0  0  0  0  0  0  0  0  0
   11.1381    3.5884   -7.1806 C   0  0  0  0  0  0  0  0  0  0  0  0
   12.3943    3.8131   -6.6718 C   0  0  0  0  0  0  0  0  0  0  0  0
   13.4109    3.5428   -7.4964 N   0  0  0  0  0  0  0  0  0  0  0  0
   14.6421    3.7063   -6.9827 C   0  0  0  0  0  0  0  0  0  0  0  0
   14.8758    4.1806   -5.6997 C   0  0  0  0  0  0  0  0  0  0  0  0
   16.2587    4.2972   -5.2539 C   0  0  0  0  0  0  0  0  0  0  0  0
   17.4083    3.6148   -5.7341 C   0  0  0  0  0  0  0  0  0  0  0  0
   18.5402    4.0278   -5.1659 N   0  0  0  0  0  0  0  0  0  0  0  0
   18.1303    4.9807   -4.3113 N   0  0  0  0  0  0  0  0  0  0  0  0
   19.1159    5.7115   -3.5518 C   0  0  0  0  0  0  0  0  0  0  0  0
   16.7715    5.1674   -4.3132 C   0  0  0  0  0  0  0  0  0  0  0  0
   13.8375    4.4924   -4.8681 N   0  0  0  0  0  0  0  0  0  0  0  0
   12.5656    4.2688   -5.3413 C   0  0  0  0  0  0  0  0  0  0  0  0
   11.3902    4.4025   -4.5572 C   0  0  0  0  0  0  0  0  0  0  0  0
    8.9711   -1.8405   -4.7339 N   0  0  0  0  0  0  0  0  0  0  0  0
   10.4653   -5.1250   -6.9582 H   0  0  0  0  0  0  0  0  0  0  0  0
   11.4734   -4.3578   -5.7208 H   0  0  0  0  0  0  0  0  0  0  0  0
   10.6244   -3.3609   -6.9139 H   0  0  0  0  0  0  0  0  0  0  0  0
    9.2156   -5.1423   -4.8505 H   0  0  0  0  0  0  0  0  0  0  0  0
    8.4236   -4.0569   -5.9799 H   0  0  0  0  0  0  0  0  0  0  0  0
   10.3843   -4.2761   -2.8537 H   0  0  0  0  0  0  0  0  0  0  0  0
   10.4852   -2.3416   -1.2767 H   0  0  0  0  0  0  0  0  0  0  0  0
    6.9601    3.1654   -4.0278 H   0  0  0  0  0  0  0  0  0  0  0  0
    7.5858    3.1210   -5.6094 H   0  0  0  0  0  0  0  0  0  0  0  0
    7.9192    2.8948   -1.9206 H   0  0  0  0  0  0  0  0  0  0  0  0
    6.2637    2.4822    1.2941 H   0  0  0  0  0  0  0  0  0  0  0  0
    7.7152    2.1130    0.3524 H   0  0  0  0  0  0  0  0  0  0  0  0
    6.1469    2.4839   -0.4675 H   0  0  0  0  0  0  0  0  0  0  0  0
    7.7215    6.5070    0.3363 H   0  0  0  0  0  0  0  0  0  0  0  0
    8.9308    9.7902   -0.5931 H   0  0  0  0  0  0  0  0  0  0  0  0
    9.1297    8.3619    0.4271 H   0  0  0  0  0  0  0  0  0  0  0  0
    7.5214    8.7684   -0.2882 H   0  0  0  0  0  0  0  0  0  0  0  0
    9.4195    6.5501   -3.6195 H   0  0  0  0  0  0  0  0  0  0  0  0
    9.0629    3.4914   -6.8679 H   0  0  0  0  0  0  0  0  0  0  0  0
   11.0321    3.2640   -8.2137 H   0  0  0  0  0  0  0  0  0  0  0  0
   15.4439    3.4310   -7.6580 H   0  0  0  0  0  0  0  0  0  0  0  0
   17.4726    2.8403   -6.4878 H   0  0  0  0  0  0  0  0  0  0  0  0
   20.1176    5.3558   -3.8159 H   0  0  0  0  0  0  0  0  0  0  0  0
   18.9329    5.5412   -2.4891 H   0  0  0  0  0  0  0  0  0  0  0  0
   19.0292    6.7717   -3.8009 H   0  0  0  0  0  0  0  0  0  0  0  0
   16.3024    5.9104   -3.6831 H   0  0  0  0  0  0  0  0  0  0  0  0
   11.5158    4.7159   -3.5227 H   0  0  0  0  0  0  0  0  0  0  0  0
  1  2  1  0  0  0  0
  1 39  1  0  0  0  0
  1 40  1  0  0  0  0
  1 41  1  0  0  0  0
  2  3  1  0  0  0  0
  2 42  1  0  0  0  0
  2 43  1  0  0  0  0
  3  4  1  0  0  0  0
  3 38  2  0  0  0  0
  4  5  2  0  0  0  0
  4 44  1  0  0  0  0
  5  6  1  0  0  0  0
  5 45  1  0  0  0  0
  6  7  2  0  0  0  0
  7  8  1  0  0  0  0
  7 38  1  0  0  0  0
  8  9  3  0  0  0  0
  9 10  1  0  0  0  0
 10 11  1  0  0  0  0
 10 46  1  0  0  0  0
 10 47  1  0  0  0  0
 11 12  1  0  0  0  0
 11 22  1  0  0  0  0
 12 13  1  0  0  0  0
 12 21  2  0  0  0  0
 13 14  2  0  0  0  0
 13 48  1  0  0  0  0
 14 15  1  0  0  0  0
 14 17  1  0  0  0  0
 15 16  1  0  0  0  0
 16 49  1  0  0  0  0
 16 50  1  0  0  0  0
 16 51  1  0  0  0  0
 17 18  2  0  0  0  0
 17 52  1  0  0  0  0
 18 19  1  0  0  0  0
 18 21  1  0  0  0  0
 19 20  1  0  0  0  0
 20 53  1  0  0  0  0
 20 54  1  0  0  0  0
 20 55  1  0  0  0  0
 21 56  1  0  0  0  0
 22 23  1  0  0  0  0
 22 37  2  0  0  0  0
 23 24  2  0  0  0  0
 23 57  1  0  0  0  0
 24 25  1  0  0  0  0
 24 58  1  0  0  0  0
 25 26  1  0  0  0  0
 25 36  2  0  0  0  0
 26 27  2  0  0  0  0
 27 28  1  0  0  0  0
 27 59  1  0  0  0  0
 28 29  1  0  0  0  0
 28 35  2  0  0  0  0
 29 30  1  0  0  0  0
 29 34  2  0  0  0  0
 30 31  2  0  0  0  0
 30 60  1  0  0  0  0
 31 32  1  0  0  0  0
 32 33  1  0  0  0  0
 32 34  1  0  0  0  0
 33 61  1  0  0  0  0
 33 62  1  0  0  0  0
 33 63  1  0  0  0  0
 34 64  1  0  0  0  0
 35 36  1  0  0  0  0
 36 37  1  0  0  0  0
 37 65  1  0  0  0  0
M  END
$$$$
