CHEMBL3968361
 OpenBabel04072215373D

 65 69  0  0  0  0  0  0  0  0999 V2000
    3.4877   -1.9583   -5.6691 C   0  0  0  0  0  0  0  0  0  0  0  0
    3.7151   -2.8908   -4.6101 O   0  0  0  0  0  0  0  0  0  0  0  0
    3.9767   -2.3063   -3.3962 C   0  0  0  0  0  0  0  0  0  0  0  0
    3.3553   -1.1321   -2.9796 C   0  0  0  0  0  0  0  0  0  0  0  0
    3.6526   -0.6164   -1.7311 C   0  0  0  0  0  0  0  0  0  0  0  0
    3.0508    0.4863   -1.1803 O   0  0  0  0  0  0  0  0  0  0  0  0
    1.7386    0.7761   -1.6670 C   0  0  0  0  0  0  0  0  0  0  0  0
    4.6519   -1.2260   -0.9560 C   0  0  0  0  0  0  0  0  0  0  0  0
    5.3088   -2.4192   -1.3314 C   0  0  0  0  0  0  0  0  0  0  0  0
    6.2832   -3.0685   -0.5206 N   0  0  0  0  0  0  0  0  0  0  0  0
    6.6640   -2.4357    0.8201 C   0  0  0  0  0  0  0  0  0  0  0  0
    5.9207   -2.8342    2.1764 C   0  0  0  0  0  0  0  0  0  0  0  0
    6.0579   -4.2358    2.4815 O   0  0  0  0  0  0  0  0  0  0  0  0
    4.4297   -2.4523    2.2282 C   0  0  0  0  0  0  0  0  0  0  0  0
    3.8368   -2.2376    3.6271 C   0  0  0  0  0  0  0  0  0  0  0  0
    4.6680   -1.4356    4.5139 N   0  0  0  0  0  0  0  0  0  0  0  0
    5.9974   -2.0129    4.6474 C   0  0  0  0  0  0  0  0  0  0  0  0
    6.7186   -2.1233    3.3074 C   0  0  0  0  0  0  0  0  0  0  0  0
    7.3910   -3.9114   -0.9444 C   0  0  0  0  0  0  0  0  0  0  0  0
    7.6792   -4.9489   -0.0870 C   0  0  0  0  0  0  0  0  0  0  0  0
    8.9314   -5.5153   -0.0123 C   0  0  0  0  0  0  0  0  0  0  0  0
    9.9092   -5.1581   -0.8987 C   0  0  0  0  0  0  0  0  0  0  0  0
   11.0835   -5.7224   -0.6060 N   0  0  0  0  0  0  0  0  0  0  0  0
   12.0584   -5.5549   -1.4969 C   0  0  0  0  0  0  0  0  0  0  0  0
   11.8601   -4.9045   -2.6984 C   0  0  0  0  0  0  0  0  0  0  0  0
   12.9903   -4.9889   -3.6270 C   0  0  0  0  0  0  0  0  0  0  0  0
   13.3114   -5.9872   -4.5913 C   0  0  0  0  0  0  0  0  0  0  0  0
   14.5809   -5.9214   -5.0159 N   0  0  0  0  0  0  0  0  0  0  0  0
   15.0892   -4.8987   -4.3086 N   0  0  0  0  0  0  0  0  0  0  0  0
   16.3818   -4.3425   -4.6353 C   0  0  0  0  0  0  0  0  0  0  0  0
   14.2265   -4.4250   -3.3604 C   0  0  0  0  0  0  0  0  0  0  0  0
   10.6704   -4.2524   -2.9759 N   0  0  0  0  0  0  0  0  0  0  0  0
    9.6338   -4.3479   -2.0336 C   0  0  0  0  0  0  0  0  0  0  0  0
    8.3347   -3.6854   -1.9909 C   0  0  0  0  0  0  0  0  0  0  0  0
    4.8905   -2.9720   -2.5540 C   0  0  0  0  0  0  0  0  0  0  0  0
    3.5461   -2.5003   -6.6148 H   0  0  0  0  0  0  0  0  0  0  0  0
    4.2547   -1.1756   -5.6863 H   0  0  0  0  0  0  0  0  0  0  0  0
    2.4853   -1.5161   -5.6067 H   0  0  0  0  0  0  0  0  0  0  0  0
    2.6431   -0.6265   -3.6192 H   0  0  0  0  0  0  0  0  0  0  0  0
    1.2689    1.4888   -0.9818 H   0  0  0  0  0  0  0  0  0  0  0  0
    1.1073   -0.1201   -1.6927 H   0  0  0  0  0  0  0  0  0  0  0  0
    1.7874    1.2469   -2.6544 H   0  0  0  0  0  0  0  0  0  0  0  0
    4.8880   -0.7110   -0.0349 H   0  0  0  0  0  0  0  0  0  0  0  0
    6.6557   -1.3442    0.7170 H   0  0  0  0  0  0  0  0  0  0  0  0
    7.7298   -2.6361    1.0032 H   0  0  0  0  0  0  0  0  0  0  0  0
    5.2329   -4.6981    2.2575 H   0  0  0  0  0  0  0  0  0  0  0  0
    3.8280   -3.2221    1.7284 H   0  0  0  0  0  0  0  0  0  0  0  0
    4.2714   -1.5161    1.6960 H   0  0  0  0  0  0  0  0  0  0  0  0
    3.5955   -3.1936    4.1062 H   0  0  0  0  0  0  0  0  0  0  0  0
    2.8804   -1.7113    3.5115 H   0  0  0  0  0  0  0  0  0  0  0  0
    4.7258   -0.4714    4.1905 H   0  0  0  0  0  0  0  0  0  0  0  0
    5.9435   -2.9842    5.1524 H   0  0  0  0  0  0  0  0  0  0  0  0
    6.5878   -1.3628    5.3059 H   0  0  0  0  0  0  0  0  0  0  0  0
    7.6566   -2.6676    3.4881 H   0  0  0  0  0  0  0  0  0  0  0  0
    6.9953   -1.1111    2.9864 H   0  0  0  0  0  0  0  0  0  0  0  0
    6.9584   -5.2703    0.6574 H   0  0  0  0  0  0  0  0  0  0  0  0
    9.1618   -6.2084    0.7961 H   0  0  0  0  0  0  0  0  0  0  0  0
   13.0155   -5.9811   -1.2201 H   0  0  0  0  0  0  0  0  0  0  0  0
   12.6979   -6.8050   -4.9599 H   0  0  0  0  0  0  0  0  0  0  0  0
   16.8498   -4.9170   -5.4393 H   0  0  0  0  0  0  0  0  0  0  0  0
   17.0180   -4.3480   -3.7466 H   0  0  0  0  0  0  0  0  0  0  0  0
   16.2103   -3.3158   -4.9704 H   0  0  0  0  0  0  0  0  0  0  0  0
   14.5603   -3.7412   -2.5946 H   0  0  0  0  0  0  0  0  0  0  0  0
    8.1093   -2.9444   -2.7568 H   0  0  0  0  0  0  0  0  0  0  0  0
    5.2771   -3.9351   -2.8781 H   0  0  0  0  0  0  0  0  0  0  0  0
  1  2  1  0  0  0  0
  1 36  1  0  0  0  0
  1 37  1  0  0  0  0
  1 38  1  0  0  0  0
  2  3  1  0  0  0  0
  3  4  1  0  0  0  0
  3 35  2  0  0  0  0
  4  5  2  0  0  0  0
  4 39  1  0  0  0  0
  5  6  1  0  0  0  0
  5  8  1  0  0  0  0
  6  7  1  0  0  0  0
  7 40  1  0  0  0  0
  7 41  1  0  0  0  0
  7 42  1  0  0  0  0
  8  9  2  0  0  0  0
  8 43  1  0  0  0  0
  9 10  1  0  0  0  0
  9 35  1  0  0  0  0
 10 11  1  0  0  0  0
 10 19  1  0  0  0  0
 11 12  1  0  0  0  0
 11 44  1  0  0  0  0
 11 45  1  0  0  0  0
 12 13  1  0  0  0  0
 12 14  1  0  0  0  0
 12 18  1  0  0  0  0
 13 46  1  0  0  0  0
 14 15  1  0  0  0  0
 14 47  1  0  0  0  0
 14 48  1  0  0  0  0
 15 16  1  0  0  0  0
 15 49  1  0  0  0  0
 15 50  1  0  0  0  0
 16 17  1  0  0  0  0
 16 51  1  0  0  0  0
 17 18  1  0  0  0  0
 17 52  1  0  0  0  0
 17 53  1  0  0  0  0
 18 54  1  0  0  0  0
 18 55  1  0  0  0  0
 19 20  1  0  0  0  0
 19 34  2  0  0  0  0
 20 21  2  0  0  0  0
 20 56  1  0  0  0  0
 21 22  1  0  0  0  0
 21 57  1  0  0  0  0
 22 23  1  0  0  0  0
 22 33  2  0  0  0  0
 23 24  2  0  0  0  0
 24 25  1  0  0  0  0
 24 58  1  0  0  0  0
 25 26  1  0  0  0  0
 25 32  2  0  0  0  0
 26 27  1  0  0  0  0
 26 31  2  0  0  0  0
 27 28  2  0  0  0  0
 27 59  1  0  0  0  0
 28 29  1  0  0  0  0
 29 30  1  0  0  0  0
 29 31  1  0  0  0  0
 30 60  1  0  0  0  0
 30 61  1  0  0  0  0
 30 62  1  0  0  0  0
 31 63  1  0  0  0  0
 32 33  1  0  0  0  0
 33 34  1  0  0  0  0
 34 64  1  0  0  0  0
 35 65  1  0  0  0  0
M  END
$$$$
