CHEMBL3915562
 OpenBabel04072215373D

 40 43  0  0  0  0  0  0  0  0999 V2000
    0.9999    2.0920   -0.7988 C   0  0  0  0  0  0  0  0  0  0  0  0
    0.2669    1.2456   -0.0526 C   0  0  0  0  0  0  0  0  0  0  0  0
   -1.1684    1.2601    0.0201 C   0  0  0  0  0  0  0  0  0  0  0  0
   -1.9444    2.0884   -0.6957 N   0  0  0  0  0  0  0  0  0  0  0  0
   -3.1959    1.7469   -0.3575 N   0  0  0  0  0  0  0  0  0  0  0  0
   -3.2774    0.7402    0.5635 C   0  0  0  0  0  0  0  0  0  0  0  0
   -4.3810    0.1142    1.1578 C   0  0  0  0  0  0  0  0  0  0  0  0
   -4.1229   -0.9089    2.0805 C   0  0  0  0  0  0  0  0  0  0  0  0
   -5.4765   -1.7796    2.8454 S   0  0  0  0  0  0  0  0  0  0  0  0
   -5.9463   -0.7669    4.2433 C   0  0  0  0  0  0  0  0  0  0  0  0
   -5.2140    0.3301    4.7079 C   0  0  0  0  0  0  0  0  0  0  0  0
   -5.6496    1.0608    5.8190 C   0  0  0  0  0  0  0  0  0  0  0  0
   -6.8204    0.6997    6.4819 C   0  0  0  0  0  0  0  0  0  0  0  0
   -7.5564   -0.3943    6.0354 C   0  0  0  0  0  0  0  0  0  0  0  0
   -7.1212   -1.1216    4.9236 C   0  0  0  0  0  0  0  0  0  0  0  0
   -2.8072   -1.2848    2.3715 C   0  0  0  0  0  0  0  0  0  0  0  0
   -1.7173   -0.6427    1.7640 C   0  0  0  0  0  0  0  0  0  0  0  0
   -1.9590    0.3924    0.8385 C   0  0  0  0  0  0  0  0  0  0  0  0
    2.4658    2.0759   -0.9247 C   0  0  0  0  0  0  0  0  0  0  0  0
    3.2154    0.8932   -0.8730 C   0  0  0  0  0  0  0  0  0  0  0  0
    4.5998    0.9169   -1.0691 C   0  0  0  0  0  0  0  0  0  0  0  0
    5.2495    2.1216   -1.3287 C   0  0  0  0  0  0  0  0  0  0  0  0
    4.5162    3.3038   -1.3910 C   0  0  0  0  0  0  0  0  0  0  0  0
    3.1324    3.2795   -1.1943 C   0  0  0  0  0  0  0  0  0  0  0  0
    0.4919    2.8658   -1.3732 H   0  0  0  0  0  0  0  0  0  0  0  0
    0.7730    0.4900    0.5399 H   0  0  0  0  0  0  0  0  0  0  0  0
   -3.9616    2.2429   -0.7984 H   0  0  0  0  0  0  0  0  0  0  0  0
   -5.3962    0.4075    0.9096 H   0  0  0  0  0  0  0  0  0  0  0  0
   -4.2912    0.6399    4.2264 H   0  0  0  0  0  0  0  0  0  0  0  0
   -5.0686    1.9118    6.1678 H   0  0  0  0  0  0  0  0  0  0  0  0
   -7.1550    1.2669    7.3461 H   0  0  0  0  0  0  0  0  0  0  0  0
   -8.4675   -0.6843    6.5512 H   0  0  0  0  0  0  0  0  0  0  0  0
   -7.7105   -1.9759    4.5961 H   0  0  0  0  0  0  0  0  0  0  0  0
   -2.6142   -2.0893    3.0788 H   0  0  0  0  0  0  0  0  0  0  0  0
   -0.7046   -0.9505    2.0059 H   0  0  0  0  0  0  0  0  0  0  0  0
    2.7322   -0.0651   -0.7031 H   0  0  0  0  0  0  0  0  0  0  0  0
    5.1681   -0.0089   -1.0325 H   0  0  0  0  0  0  0  0  0  0  0  0
    6.3239    2.1375   -1.4917 H   0  0  0  0  0  0  0  0  0  0  0  0
    5.0178    4.2448   -1.6013 H   0  0  0  0  0  0  0  0  0  0  0  0
    2.5774    4.2136   -1.2565 H   0  0  0  0  0  0  0  0  0  0  0  0
  1  2  2  0  0  0  0
  1 19  1  0  0  0  0
  1 25  1  0  0  0  0
  2  3  1  0  0  0  0
  2 26  1  0  0  0  0
  3  4  2  0  0  0  0
  3 18  1  0  0  0  0
  4  5  1  0  0  0  0
  5  6  1  0  0  0  0
  5 27  1  0  0  0  0
  6  7  1  0  0  0  0
  6 18  2  0  0  0  0
  7  8  2  0  0  0  0
  7 28  1  0  0  0  0
  8  9  1  0  0  0  0
  8 16  1  0  0  0  0
  9 10  1  0  0  0  0
 10 11  1  0  0  0  0
 10 15  2  0  0  0  0
 11 12  2  0  0  0  0
 11 29  1  0  0  0  0
 12 13  1  0  0  0  0
 12 30  1  0  0  0  0
 13 14  2  0  0  0  0
 13 31  1  0  0  0  0
 14 15  1  0  0  0  0
 14 32  1  0  0  0  0
 15 33  1  0  0  0  0
 16 17  2  0  0  0  0
 16 34  1  0  0  0  0
 17 18  1  0  0  0  0
 17 35  1  0  0  0  0
 19 20  1  0  0  0  0
 19 24  2  0  0  0  0
 20 21  2  0  0  0  0
 20 36  1  0  0  0  0
 21 22  1  0  0  0  0
 21 37  1  0  0  0  0
 22 23  2  0  0  0  0
 22 38  1  0  0  0  0
 23 24  1  0  0  0  0
 23 39  1  0  0  0  0
 24 40  1  0  0  0  0
M  END
$$$$
