CHEMBL3939894
 OpenBabel04072215373D

 46 49  0  0  0  0  0  0  0  0999 V2000
    3.2140   -1.0579   -0.4339 C   0  0  0  0  0  0  0  0  0  0  0  0
    2.4861    0.0797    0.1445 N   0  0  0  0  0  0  0  0  0  0  0  0
    1.3725   -0.2123    0.9696 C   0  0  0  0  0  0  0  0  0  0  0  0
    1.3077   -1.3503    1.7868 C   0  0  0  0  0  0  0  0  0  0  0  0
    0.1822   -1.6149    2.5732 C   0  0  0  0  0  0  0  0  0  0  0  0
   -0.8912   -0.7264    2.5786 C   0  0  0  0  0  0  0  0  0  0  0  0
   -0.8355    0.4499    1.8337 C   0  0  0  0  0  0  0  0  0  0  0  0
   -1.9608    1.2844    1.7509 N   0  0  0  0  0  0  0  0  0  0  0  0
    0.2666    0.6619    0.9956 C   0  0  0  0  0  0  0  0  0  0  0  0
    3.1543    1.3345    0.0409 C   0  0  0  0  0  0  0  0  0  0  0  0
    3.9701    1.6510   -1.0616 C   0  0  0  0  0  0  0  0  0  0  0  0
    4.6982    2.8509   -1.1469 C   0  0  0  0  0  0  0  0  0  0  0  0
    4.6046    3.7804   -0.0971 C   0  0  0  0  0  0  0  0  0  0  0  0
    5.1718    5.0528    0.2186 C   0  0  0  0  0  0  0  0  0  0  0  0
    6.1154    5.7597   -0.6011 C   0  0  0  0  0  0  0  0  0  0  0  0
    6.6358    6.9596   -0.2878 C   0  0  0  0  0  0  0  0  0  0  0  0
    7.5768    7.7346   -1.1091 C   0  0  0  0  0  0  0  0  0  0  0  0
    7.6062    7.6569   -2.5075 C   0  0  0  0  0  0  0  0  0  0  0  0
    8.4664    8.4728   -3.2482 C   0  0  0  0  0  0  0  0  0  0  0  0
    9.2998    9.3816   -2.5999 C   0  0  0  0  0  0  0  0  0  0  0  0
    9.2778    9.4726   -1.2106 C   0  0  0  0  0  0  0  0  0  0  0  0
    8.4194    8.6557   -0.4707 C   0  0  0  0  0  0  0  0  0  0  0  0
    4.7058    5.5134    1.3900 N   0  0  0  0  0  0  0  0  0  0  0  0
    3.8684    4.5551    1.8112 N   0  0  0  0  0  0  0  0  0  0  0  0
    3.7713    3.4827    0.9700 C   0  0  0  0  0  0  0  0  0  0  0  0
    3.0391    2.2916    1.0688 C   0  0  0  0  0  0  0  0  0  0  0  0
    2.7428   -2.0281   -0.2471 H   0  0  0  0  0  0  0  0  0  0  0  0
    4.2360   -1.1060   -0.0387 H   0  0  0  0  0  0  0  0  0  0  0  0
    3.2578   -0.9764   -1.5256 H   0  0  0  0  0  0  0  0  0  0  0  0
    2.1375   -2.0489    1.8380 H   0  0  0  0  0  0  0  0  0  0  0  0
    0.1447   -2.5159    3.1801 H   0  0  0  0  0  0  0  0  0  0  0  0
   -1.7687   -0.9582    3.1752 H   0  0  0  0  0  0  0  0  0  0  0  0
   -2.5470    1.2614    2.5779 H   0  0  0  0  0  0  0  0  0  0  0  0
   -1.7423    2.2297    1.4555 H   0  0  0  0  0  0  0  0  0  0  0  0
    0.2690    1.5259    0.3349 H   0  0  0  0  0  0  0  0  0  0  0  0
    4.0552    0.9680   -1.9023 H   0  0  0  0  0  0  0  0  0  0  0  0
    5.3245    3.0428   -2.0127 H   0  0  0  0  0  0  0  0  0  0  0  0
    6.4146    5.2736   -1.5237 H   0  0  0  0  0  0  0  0  0  0  0  0
    6.3476    7.4255    0.6539 H   0  0  0  0  0  0  0  0  0  0  0  0
    6.9456    6.9805   -3.0427 H   0  0  0  0  0  0  0  0  0  0  0  0
    8.4733    8.4079   -4.3331 H   0  0  0  0  0  0  0  0  0  0  0  0
    9.9588   10.0244   -3.1773 H   0  0  0  0  0  0  0  0  0  0  0  0
    9.9204   10.1855   -0.7008 H   0  0  0  0  0  0  0  0  0  0  0  0
    8.4109    8.7489    0.6135 H   0  0  0  0  0  0  0  0  0  0  0  0
    3.3898    4.6911    2.6934 H   0  0  0  0  0  0  0  0  0  0  0  0
    2.4322    2.1003    1.9475 H   0  0  0  0  0  0  0  0  0  0  0  0
  1  2  1  0  0  0  0
  1 27  1  0  0  0  0
  1 28  1  0  0  0  0
  1 29  1  0  0  0  0
  2  3  1  0  0  0  0
  2 10  1  0  0  0  0
  3  4  1  0  0  0  0
  3  9  2  0  0  0  0
  4  5  2  0  0  0  0
  4 30  1  0  0  0  0
  5  6  1  0  0  0  0
  5 31  1  0  0  0  0
  6  7  2  0  0  0  0
  6 32  1  0  0  0  0
  7  8  1  0  0  0  0
  7  9  1  0  0  0  0
  8 33  1  0  0  0  0
  8 34  1  0  0  0  0
  9 35  1  0  0  0  0
 10 11  1  0  0  0  0
 10 26  2  0  0  0  0
 11 12  2  0  0  0  0
 11 36  1  0  0  0  0
 12 13  1  0  0  0  0
 12 37  1  0  0  0  0
 13 14  1  0  0  0  0
 13 25  2  0  0  0  0
 14 15  1  0  0  0  0
 14 23  2  0  0  0  0
 15 16  2  0  0  0  0
 15 38  1  0  0  0  0
 16 17  1  0  0  0  0
 16 39  1  0  0  0  0
 17 18  1  0  0  0  0
 17 22  2  0  0  0  0
 18 19  2  0  0  0  0
 18 40  1  0  0  0  0
 19 20  1  0  0  0  0
 19 41  1  0  0  0  0
 20 21  2  0  0  0  0
 20 42  1  0  0  0  0
 21 22  1  0  0  0  0
 21 43  1  0  0  0  0
 22 44  1  0  0  0  0
 23 24  1  0  0  0  0
 24 25  1  0  0  0  0
 24 45  1  0  0  0  0
 25 26  1  0  0  0  0
 26 46  1  0  0  0  0
M  END
$$$$
