CHEMBL3648078
 OpenBabel04072215373D

 57 59  0  0  1  0  0  0  0  0999 V2000
    3.8048   -0.5342    0.9956 C   0  0  0  0  0  0  0  0  0  0  0  0
    3.8827    0.8408    1.6838 C   0  0  1  0  0  0  0  0  0  0  0  0
    2.5262    1.3892    1.6032 N   0  0  0  0  0  0  0  0  0  0  0  0
    2.3082    2.6460    1.0255 C   0  0  0  0  0  0  0  0  0  0  0  0
    3.3502    3.4978    0.8707 N   0  0  0  0  0  0  0  0  0  0  0  0
    3.0938    4.7018    0.3278 C   0  0  0  0  0  0  0  0  0  0  0  0
    4.1054    5.6682    0.3295 N   0  0  0  0  0  0  0  0  0  0  0  0
    3.9156    7.0583    0.3312 C   0  0  0  0  0  0  0  0  0  0  0  0
    2.7605    7.6412    0.8849 C   0  0  0  0  0  0  0  0  0  0  0  0
    2.4687    8.9967    0.7233 C   0  0  0  0  0  0  0  0  0  0  0  0
    3.3505    9.7968    0.0011 C   0  0  0  0  0  0  0  0  0  0  0  0
    2.9650   11.5203   -0.2609 S   0  0  3  0  0  0  0  0  0  0  0  0
    2.1064   11.9649    0.9420 N   0  0  0  0  0  0  0  0  0  0  0  0
    4.2159   12.1736   -0.6089 O   0  0  0  0  0  0  0  0  0  0  0  0
    1.9075   11.5300   -1.7063 C   0  0  0  0  0  0  0  0  0  0  0  0
    2.5844   11.0191   -2.9752 C   0  0  0  0  0  0  0  0  0  0  0  0
    1.9095   11.7466   -4.1367 C   0  0  0  0  0  0  0  0  0  0  0  0
    1.0849   12.8777   -3.5341 C   0  0  0  0  0  0  0  0  0  0  0  0
    1.4798   12.9499   -2.0689 C   0  0  0  0  0  0  0  0  0  0  0  0
    4.5447    9.2621   -0.4925 C   0  0  0  0  0  0  0  0  0  0  0  0
    4.8271    7.8967   -0.3213 C   0  0  0  0  0  0  0  0  0  0  0  0
    1.9027    5.0442   -0.1830 N   0  0  0  0  0  0  0  0  0  0  0  0
    0.8907    4.1815   -0.0322 C   0  0  0  0  0  0  0  0  0  0  0  0
    1.0235    2.9816    0.6148 C   0  0  0  0  0  0  0  0  0  0  0  0
   -0.4950    1.8913    0.8668 Br  0  0  0  0  0  0  0  0  0  0  0  0
    4.3769    0.7377    3.1674 C   0  0  0  0  0  0  0  0  0  0  0  0
    5.8141    0.1962    3.2359 C   0  0  0  0  0  0  0  0  0  0  0  0
    4.3423    2.0924    3.8839 C   0  0  0  0  0  0  0  0  0  0  0  0
    3.5210   -0.1399    3.9207 O   0  0  0  0  0  0  0  0  0  0  0  0
    3.5084   -0.4186   -0.0537 H   0  0  0  0  0  0  0  0  0  0  0  0
    3.0511   -1.1800    1.4664 H   0  0  0  0  0  0  0  0  0  0  0  0
    4.7615   -1.0574    1.0084 H   0  0  0  0  0  0  0  0  0  0  0  0
    4.5993    1.4424    1.1144 H   0  0  0  0  0  0  0  0  0  0  0  0
    1.9769    1.2553    2.4505 H   0  0  0  0  0  0  0  0  0  0  0  0
    4.9934    5.3107    0.6487 H   0  0  0  0  0  0  0  0  0  0  0  0
    2.0537    7.0284    1.4408 H   0  0  0  0  0  0  0  0  0  0  0  0
    1.5535    9.3957    1.1498 H   0  0  0  0  0  0  0  0  0  0  0  0
    2.6762   12.0004    1.7903 H   0  0  0  0  0  0  0  0  0  0  0  0
    1.0236   10.9202   -1.4810 H   0  0  0  0  0  0  0  0  0  0  0  0
    2.4809    9.9336   -3.0763 H   0  0  0  0  0  0  0  0  0  0  0  0
    3.6573   11.2401   -2.9859 H   0  0  0  0  0  0  0  0  0  0  0  0
    1.2644   11.0695   -4.7074 H   0  0  0  0  0  0  0  0  0  0  0  0
    2.6615   12.1358   -4.8323 H   0  0  0  0  0  0  0  0  0  0  0  0
    0.0165   12.6534   -3.6307 H   0  0  0  0  0  0  0  0  0  0  0  0
    1.2657   13.8296   -4.0451 H   0  0  0  0  0  0  0  0  0  0  0  0
    0.6493   13.2989   -1.4457 H   0  0  0  0  0  0  0  0  0  0  0  0
    2.3049   13.6607   -1.9417 H   0  0  0  0  0  0  0  0  0  0  0  0
    5.2501    9.8855   -1.0335 H   0  0  0  0  0  0  0  0  0  0  0  0
    5.7315    7.4839   -0.7578 H   0  0  0  0  0  0  0  0  0  0  0  0
   -0.0540    4.5165   -0.4528 H   0  0  0  0  0  0  0  0  0  0  0  0
    6.4972    0.8109    2.6376 H   0  0  0  0  0  0  0  0  0  0  0  0
    5.8796   -0.8383    2.8834 H   0  0  0  0  0  0  0  0  0  0  0  0
    6.1789    0.1820    4.2675 H   0  0  0  0  0  0  0  0  0  0  0  0
    5.0028    2.8211    3.4029 H   0  0  0  0  0  0  0  0  0  0  0  0
    4.6545    1.9809    4.9296 H   0  0  0  0  0  0  0  0  0  0  0  0
    3.3292    2.5058    3.9232 H   0  0  0  0  0  0  0  0  0  0  0  0
    3.6730   -1.0494    3.6174 H   0  0  0  0  0  0  0  0  0  0  0  0
  1  2  1  0  0  0  0
  1 30  1  0  0  0  0
  1 31  1  0  0  0  0
  1 32  1  0  0  0  0
  2  3  1  0  0  0  0
  2 26  1  0  0  0  0
  2 33  1  6  0  0  0
  3  4  1  0  0  0  0
  3 34  1  0  0  0  0
  4  5  1  0  0  0  0
  4 24  2  0  0  0  0
  5  6  2  0  0  0  0
  6  7  1  0  0  0  0
  6 22  1  0  0  0  0
  7  8  1  0  0  0  0
  7 35  1  0  0  0  0
  8  9  1  0  0  0  0
  8 21  2  0  0  0  0
  9 10  2  0  0  0  0
  9 36  1  0  0  0  0
 10 11  1  0  0  0  0
 10 37  1  0  0  0  0
 11 12  1  0  0  0  0
 11 20  2  0  0  0  0
 12 13  2  0  0  0  0
 12 14  2  0  0  0  0
 12 15  1  0  0  0  0
 13 38  1  0  0  0  0
 15 16  1  0  0  0  0
 15 19  1  0  0  0  0
 15 39  1  0  0  0  0
 16 17  1  0  0  0  0
 16 40  1  0  0  0  0
 16 41  1  0  0  0  0
 17 18  1  0  0  0  0
 17 42  1  0  0  0  0
 17 43  1  0  0  0  0
 18 19  1  0  0  0  0
 18 44  1  0  0  0  0
 18 45  1  0  0  0  0
 19 46  1  0  0  0  0
 19 47  1  0  0  0  0
 20 21  1  0  0  0  0
 20 48  1  0  0  0  0
 21 49  1  0  0  0  0
 22 23  2  0  0  0  0
 23 24  1  0  0  0  0
 23 50  1  0  0  0  0
 24 25  1  0  0  0  0
 26 27  1  0  0  0  0
 26 28  1  0  0  0  0
 26 29  1  0  0  0  0
 27 51  1  0  0  0  0
 27 52  1  0  0  0  0
 27 53  1  0  0  0  0
 28 54  1  0  0  0  0
 28 55  1  0  0  0  0
 28 56  1  0  0  0  0
 29 57  1  0  0  0  0
M  END
$$$$
