CHEMBL45942
 OpenBabel04072215383D

 42 45  0  0  0  0  0  0  0  0999 V2000
   -1.5253   -1.3292   -0.9096 C   0  0  0  0  0  0  0  0  0  0  0  0
   -1.1486   -2.7785   -1.0921 C   0  0  0  0  0  0  0  0  0  0  0  0
   -2.0590   -3.6367   -1.7292 C   0  0  0  0  0  0  0  0  0  0  0  0
   -1.7508   -4.9806   -1.9285 C   0  0  0  0  0  0  0  0  0  0  0  0
   -0.5380   -5.4853   -1.4765 C   0  0  0  0  0  0  0  0  0  0  0  0
    0.3697   -4.6429   -0.8344 C   0  0  0  0  0  0  0  0  0  0  0  0
    0.0923   -3.2804   -0.6456 C   0  0  0  0  0  0  0  0  0  0  0  0
    1.0002   -2.4451    0.0340 N   0  0  0  0  0  0  0  0  0  0  0  0
    2.3953   -2.5145    0.0079 C   0  0  0  0  0  0  0  0  0  0  0  0
    3.0259   -3.0330   -1.0574 N   0  0  0  0  0  0  0  0  0  0  0  0
    4.3667   -2.9848   -1.0786 C   0  0  0  0  0  0  0  0  0  0  0  0
    5.1168   -2.4226   -0.0800 C   0  0  0  0  0  0  0  0  0  0  0  0
    4.3978   -1.9548    0.9991 C   0  0  0  0  0  0  0  0  0  0  0  0
    5.1000   -1.4061    2.1074 N   0  0  0  0  0  0  0  0  0  0  0  0
    6.2557   -0.6543    2.0260 C   0  0  0  0  0  0  0  0  0  0  0  0
    6.4593   -0.1495    3.2847 C   0  0  0  0  0  0  0  0  0  0  0  0
    5.5403   -0.6530    4.1590 N   0  0  0  0  0  0  0  0  0  0  0  0
    4.7575   -1.4669    3.4602 C   0  0  0  0  0  0  0  0  0  0  0  0
    3.7531   -2.3560    4.0731 C   0  0  0  0  0  0  0  0  0  0  0  0
    3.0981   -1.9479    5.2439 C   0  0  0  0  0  0  0  0  0  0  0  0
    2.1362   -2.7625    5.8485 C   0  0  0  0  0  0  0  0  0  0  0  0
    1.8177   -3.9996    5.2927 C   0  0  0  0  0  0  0  0  0  0  0  0
    2.4868   -4.4389    4.1549 C   0  0  0  0  0  0  0  0  0  0  0  0
    3.4652   -3.6343    3.5677 C   0  0  0  0  0  0  0  0  0  0  0  0
    3.0466   -2.0006    1.0599 N   0  0  0  0  0  0  0  0  0  0  0  0
   -2.3902   -1.0666   -1.5300 H   0  0  0  0  0  0  0  0  0  0  0  0
   -0.7060   -0.6713   -1.2164 H   0  0  0  0  0  0  0  0  0  0  0  0
   -1.7847   -1.1317    0.1337 H   0  0  0  0  0  0  0  0  0  0  0  0
   -3.0127   -3.2562   -2.0887 H   0  0  0  0  0  0  0  0  0  0  0  0
   -2.4568   -5.6312   -2.4372 H   0  0  0  0  0  0  0  0  0  0  0  0
   -0.2919   -6.5331   -1.6238 H   0  0  0  0  0  0  0  0  0  0  0  0
    1.3068   -5.0647   -0.4794 H   0  0  0  0  0  0  0  0  0  0  0  0
    0.7062   -2.1929    0.9695 H   0  0  0  0  0  0  0  0  0  0  0  0
    4.8291   -3.4331   -1.9528 H   0  0  0  0  0  0  0  0  0  0  0  0
    6.1966   -2.4225   -0.1325 H   0  0  0  0  0  0  0  0  0  0  0  0
    6.7599   -0.4558    1.0915 H   0  0  0  0  0  0  0  0  0  0  0  0
    7.2179    0.5530    3.6052 H   0  0  0  0  0  0  0  0  0  0  0  0
    3.3412   -0.9864    5.6931 H   0  0  0  0  0  0  0  0  0  0  0  0
    1.6365   -2.4286    6.7538 H   0  0  0  0  0  0  0  0  0  0  0  0
    1.0581   -4.6260    5.7522 H   0  0  0  0  0  0  0  0  0  0  0  0
    2.2525   -5.4083    3.7224 H   0  0  0  0  0  0  0  0  0  0  0  0
    3.9898   -4.0275    2.7023 H   0  0  0  0  0  0  0  0  0  0  0  0
  1  2  1  0  0  0  0
  1 26  1  0  0  0  0
  1 27  1  0  0  0  0
  1 28  1  0  0  0  0
  2  3  1  0  0  0  0
  2  7  2  0  0  0  0
  3  4  2  0  0  0  0
  3 29  1  0  0  0  0
  4  5  1  0  0  0  0
  4 30  1  0  0  0  0
  5  6  2  0  0  0  0
  5 31  1  0  0  0  0
  6  7  1  0  0  0  0
  6 32  1  0  0  0  0
  7  8  1  0  0  0  0
  8  9  1  0  0  0  0
  8 33  1  0  0  0  0
  9 10  1  0  0  0  0
  9 25  2  0  0  0  0
 10 11  2  0  0  0  0
 11 12  1  0  0  0  0
 11 34  1  0  0  0  0
 12 13  2  0  0  0  0
 12 35  1  0  0  0  0
 13 14  1  0  0  0  0
 13 25  1  0  0  0  0
 14 15  1  0  0  0  0
 14 18  1  0  0  0  0
 15 16  2  0  0  0  0
 15 36  1  0  0  0  0
 16 17  1  0  0  0  0
 16 37  1  0  0  0  0
 17 18  2  0  0  0  0
 18 19  1  0  0  0  0
 19 20  1  0  0  0  0
 19 24  2  0  0  0  0
 20 21  2  0  0  0  0
 20 38  1  0  0  0  0
 21 22  1  0  0  0  0
 21 39  1  0  0  0  0
 22 23  2  0  0  0  0
 22 40  1  0  0  0  0
 23 24  1  0  0  0  0
 23 41  1  0  0  0  0
 24 42  1  0  0  0  0
M  END
$$$$
