CHEMBL450622
 OpenBabel04072215383D

 52 55  0  0  0  0  0  0  0  0999 V2000
    1.5742    4.9526   -0.9959 C   0  0  0  0  0  0  0  0  0  0  0  0
    2.9228    4.5795   -1.2483 O   0  0  0  0  0  0  0  0  0  0  0  0
    3.1415    3.2749   -1.5973 C   0  0  0  0  0  0  0  0  0  0  0  0
    2.1900    2.2597   -1.6052 C   0  0  0  0  0  0  0  0  0  0  0  0
    2.5562    0.9670   -1.9768 C   0  0  0  0  0  0  0  0  0  0  0  0
    3.8724    0.6858   -2.3477 C   0  0  0  0  0  0  0  0  0  0  0  0
    4.8515    1.6915   -2.3721 C   0  0  0  0  0  0  0  0  0  0  0  0
    6.2375    1.4102   -2.8093 C   0  0  0  0  0  0  0  0  0  0  0  0
    7.3270    2.0987   -2.2181 C   0  0  0  0  0  0  0  0  0  0  0  0
    8.6449    1.8984   -2.6371 C   0  0  0  0  0  0  0  0  0  0  0  0
    8.8786    0.9794   -3.6411 C   0  0  0  0  0  0  0  0  0  0  0  0
    7.8241    0.2695   -4.2101 C   0  0  0  0  0  0  0  0  0  0  0  0
    6.5117    0.4709   -3.8270 C   0  0  0  0  0  0  0  0  0  0  0  0
    8.3002   -0.6136   -5.1754 N   0  0  0  0  0  0  0  0  0  0  0  0
    9.6822   -0.5307   -5.2993 C   0  0  0  0  0  0  0  0  0  0  0  0
   10.3897   -1.1963   -6.0322 O   0  0  0  0  0  0  0  0  0  0  0  0
   10.1019    0.5446   -4.3294 C   0  0  0  0  0  0  0  0  0  0  0  0
   11.2775    1.1297   -4.0736 C   0  0  0  0  0  0  0  0  0  0  0  0
   12.5476    0.9349   -4.6713 C   0  0  0  0  0  0  0  0  0  0  0  0
   12.7814   -0.0744   -5.5689 N   0  0  0  0  0  0  0  0  0  0  0  0
   14.0807   -0.0278   -5.9928 C   0  0  0  0  0  0  0  0  0  0  0  0
   14.7195    1.0096   -5.3478 C   0  0  0  0  0  0  0  0  0  0  0  0
   16.1490    1.3795   -5.5154 C   0  0  0  0  0  0  0  0  0  0  0  0
   13.7413    1.6364   -4.5041 C   0  0  0  0  0  0  0  0  0  0  0  0
   13.9623    2.8222   -3.5982 C   0  0  0  0  0  0  0  0  0  0  0  0
   14.2042    4.1176   -4.3675 C   0  0  0  0  0  0  0  0  0  0  0  0
   14.3015    5.3035   -3.4420 C   0  0  0  0  0  0  0  0  0  0  0  0
   14.1566    5.2735   -2.2308 O   0  0  0  0  0  0  0  0  0  0  0  0
   14.5716    6.4513   -4.1086 O   0  0  0  0  0  0  0  0  0  0  0  0
    4.4563    2.9845   -1.9769 C   0  0  0  0  0  0  0  0  0  0  0  0
    1.5541    6.0292   -0.8025 H   0  0  0  0  0  0  0  0  0  0  0  0
    1.1867    4.4457   -0.1061 H   0  0  0  0  0  0  0  0  0  0  0  0
    0.9416    4.7595   -1.8688 H   0  0  0  0  0  0  0  0  0  0  0  0
    1.1580    2.4383   -1.3249 H   0  0  0  0  0  0  0  0  0  0  0  0
    1.8147    0.1724   -1.9768 H   0  0  0  0  0  0  0  0  0  0  0  0
    4.1245   -0.3387   -2.6102 H   0  0  0  0  0  0  0  0  0  0  0  0
    7.1594    2.8143   -1.4177 H   0  0  0  0  0  0  0  0  0  0  0  0
    9.4471    2.4620   -2.1736 H   0  0  0  0  0  0  0  0  0  0  0  0
    5.7137   -0.0713   -4.3224 H   0  0  0  0  0  0  0  0  0  0  0  0
    7.7397   -1.2556   -5.7159 H   0  0  0  0  0  0  0  0  0  0  0  0
   11.2769    1.9019   -3.3073 H   0  0  0  0  0  0  0  0  0  0  0  0
   12.0960   -0.7549   -5.8865 H   0  0  0  0  0  0  0  0  0  0  0  0
   14.4417   -0.7476   -6.7150 H   0  0  0  0  0  0  0  0  0  0  0  0
   16.6559    0.6900   -6.1983 H   0  0  0  0  0  0  0  0  0  0  0  0
   16.6696    1.3496   -4.5537 H   0  0  0  0  0  0  0  0  0  0  0  0
   16.2425    2.3844   -5.9362 H   0  0  0  0  0  0  0  0  0  0  0  0
   14.8044    2.6122   -2.9278 H   0  0  0  0  0  0  0  0  0  0  0  0
   13.0967    2.9607   -2.9385 H   0  0  0  0  0  0  0  0  0  0  0  0
   13.3856    4.3000   -5.0729 H   0  0  0  0  0  0  0  0  0  0  0  0
   15.1437    4.0550   -4.9240 H   0  0  0  0  0  0  0  0  0  0  0  0
   14.6597    6.3328   -5.0739 H   0  0  0  0  0  0  0  0  0  0  0  0
    5.1721    3.8047   -1.9785 H   0  0  0  0  0  0  0  0  0  0  0  0
  1  2  1  0  0  0  0
  1 31  1  0  0  0  0
  1 32  1  0  0  0  0
  1 33  1  0  0  0  0
  2  3  1  0  0  0  0
  3  4  1  0  0  0  0
  3 30  2  0  0  0  0
  4  5  2  0  0  0  0
  4 34  1  0  0  0  0
  5  6  1  0  0  0  0
  5 35  1  0  0  0  0
  6  7  2  0  0  0  0
  6 36  1  0  0  0  0
  7  8  1  0  0  0  0
  7 30  1  0  0  0  0
  8  9  1  0  0  0  0
  8 13  2  0  0  0  0
  9 10  2  0  0  0  0
  9 37  1  0  0  0  0
 10 11  1  0  0  0  0
 10 38  1  0  0  0  0
 11 12  2  0  0  0  0
 11 17  1  0  0  0  0
 12 13  1  0  0  0  0
 12 14  1  0  0  0  0
 13 39  1  0  0  0  0
 14 15  1  0  0  0  0
 14 40  1  0  0  0  0
 15 16  2  0  0  0  0
 15 17  1  0  0  0  0
 17 18  2  0  0  0  0
 18 19  1  0  0  0  0
 18 41  1  0  0  0  0
 19 20  1  0  0  0  0
 19 24  2  0  0  0  0
 20 21  1  0  0  0  0
 20 42  1  0  0  0  0
 21 22  2  0  0  0  0
 21 43  1  0  0  0  0
 22 23  1  0  0  0  0
 22 24  1  0  0  0  0
 23 44  1  0  0  0  0
 23 45  1  0  0  0  0
 23 46  1  0  0  0  0
 24 25  1  0  0  0  0
 25 26  1  0  0  0  0
 25 47  1  0  0  0  0
 25 48  1  0  0  0  0
 26 27  1  0  0  0  0
 26 49  1  0  0  0  0
 26 50  1  0  0  0  0
 27 28  2  0  0  0  0
 27 29  1  0  0  0  0
 29 51  1  0  0  0  0
 30 52  1  0  0  0  0
M  END
$$$$
