CHEMBL3953206
 OpenBabel04072215373D

 66 71  0  0  0  0  0  0  0  0999 V2000
    0.8181    0.3756   -0.4973 C   0  0  0  0  0  0  0  0  0  0  0  0
    2.0003   -0.0338   -1.1936 O   0  0  0  0  0  0  0  0  0  0  0  0
    2.8828    0.9616   -1.5343 C   0  0  0  0  0  0  0  0  0  0  0  0
    2.6141    2.3105   -1.4109 C   0  0  0  0  0  0  0  0  0  0  0  0
    3.6282    3.2399   -1.6049 C   0  0  0  0  0  0  0  0  0  0  0  0
    3.4276    4.6565   -1.2030 C   0  0  0  0  0  0  0  0  0  0  0  0
    3.9605    5.5255   -1.8986 O   0  0  0  0  0  0  0  0  0  0  0  0
    2.6529    4.9800   -0.0934 N   0  0  0  0  0  0  0  0  0  0  0  0
    2.0766    4.1579    0.9676 C   0  0  0  0  0  0  0  0  0  0  0  0
    0.7289    4.8358    1.1677 C   0  0  0  0  0  0  0  0  0  0  0  0
    1.1128    6.3125    1.1184 C   0  0  0  0  0  0  0  0  0  0  0  0
    2.2876    6.3663    0.1367 C   0  0  0  0  0  0  0  0  0  0  0  0
    4.8279    2.8466   -2.2339 C   0  0  0  0  0  0  0  0  0  0  0  0
    5.1168    1.4987   -2.4849 C   0  0  0  0  0  0  0  0  0  0  0  0
    6.2786    1.0984   -3.2058 N   0  0  0  0  0  0  0  0  0  0  0  0
    6.7455   -0.3236   -3.0115 C   0  0  0  0  0  0  0  0  0  0  0  0
    6.0766   -1.4761   -3.7480 C   0  0  0  0  0  0  0  0  0  0  0  0
    6.1558   -1.7517   -5.2431 C   0  0  0  0  0  0  0  0  0  0  0  0
    4.8395   -1.4008   -4.6126 C   0  0  0  0  0  0  0  0  0  0  0  0
    7.3637    1.8647   -3.7747 C   0  0  0  0  0  0  0  0  0  0  0  0
    7.8123    1.3991   -5.0094 C   0  0  0  0  0  0  0  0  0  0  0  0
    9.1299    1.5426   -5.3698 C   0  0  0  0  0  0  0  0  0  0  0  0
    9.9865    2.3062   -4.6418 C   0  0  0  0  0  0  0  0  0  0  0  0
   11.2695    2.1771   -4.9793 N   0  0  0  0  0  0  0  0  0  0  0  0
   12.1032    3.0923   -4.4845 C   0  0  0  0  0  0  0  0  0  0  0  0
   11.6543    4.1811   -3.7676 C   0  0  0  0  0  0  0  0  0  0  0  0
   12.5571    5.3309   -3.7794 C   0  0  0  0  0  0  0  0  0  0  0  0
   12.5330    6.4795   -4.6173 C   0  0  0  0  0  0  0  0  0  0  0  0
   13.6752    7.1788   -4.5816 N   0  0  0  0  0  0  0  0  0  0  0  0
   14.4441    6.4779   -3.7323 N   0  0  0  0  0  0  0  0  0  0  0  0
   15.6875    7.0254   -3.2422 C   0  0  0  0  0  0  0  0  0  0  0  0
   13.8762    5.2926   -3.3527 C   0  0  0  0  0  0  0  0  0  0  0  0
   10.3645    4.2323   -3.2809 N   0  0  0  0  0  0  0  0  0  0  0  0
    9.4951    3.2050   -3.6601 C   0  0  0  0  0  0  0  0  0  0  0  0
    8.1663    2.8746   -3.1655 C   0  0  0  0  0  0  0  0  0  0  0  0
    4.1301    0.5699   -2.0487 C   0  0  0  0  0  0  0  0  0  0  0  0
    0.2382   -0.5152   -0.2361 H   0  0  0  0  0  0  0  0  0  0  0  0
    0.1835    1.0024   -1.1339 H   0  0  0  0  0  0  0  0  0  0  0  0
    1.0627    0.8932    0.4387 H   0  0  0  0  0  0  0  0  0  0  0  0
    1.6247    2.6623   -1.1478 H   0  0  0  0  0  0  0  0  0  0  0  0
    2.7032    4.2811    1.8581 H   0  0  0  0  0  0  0  0  0  0  0  0
    2.0048    3.1002    0.7802 H   0  0  0  0  0  0  0  0  0  0  0  0
    0.2302    4.5477    2.0962 H   0  0  0  0  0  0  0  0  0  0  0  0
    0.0607    4.5994    0.3289 H   0  0  0  0  0  0  0  0  0  0  0  0
    1.4362    6.6452    2.1114 H   0  0  0  0  0  0  0  0  0  0  0  0
    0.2817    6.9494    0.8045 H   0  0  0  0  0  0  0  0  0  0  0  0
    3.1466    6.8849    0.5765 H   0  0  0  0  0  0  0  0  0  0  0  0
    2.0192    6.8505   -0.8061 H   0  0  0  0  0  0  0  0  0  0  0  0
    5.5261    3.6234   -2.5262 H   0  0  0  0  0  0  0  0  0  0  0  0
    6.6852   -0.5455   -1.9373 H   0  0  0  0  0  0  0  0  0  0  0  0
    7.8219   -0.4238   -3.2169 H   0  0  0  0  0  0  0  0  0  0  0  0
    6.2117   -2.3769   -3.1503 H   0  0  0  0  0  0  0  0  0  0  0  0
    6.2913   -2.7803   -5.5696 H   0  0  0  0  0  0  0  0  0  0  0  0
    6.5548   -1.0468   -5.9538 H   0  0  0  0  0  0  0  0  0  0  0  0
    4.1093   -2.1965   -4.5037 H   0  0  0  0  0  0  0  0  0  0  0  0
    4.4096   -0.4390   -4.8570 H   0  0  0  0  0  0  0  0  0  0  0  0
    7.1599    0.7949   -5.6209 H   0  0  0  0  0  0  0  0  0  0  0  0
    9.5076    0.9947   -6.2267 H   0  0  0  0  0  0  0  0  0  0  0  0
   13.1395    2.9646   -4.7719 H   0  0  0  0  0  0  0  0  0  0  0  0
   11.7532    6.8092   -5.2932 H   0  0  0  0  0  0  0  0  0  0  0  0
   15.8635    8.0098   -3.6840 H   0  0  0  0  0  0  0  0  0  0  0  0
   16.5081    6.3474   -3.4893 H   0  0  0  0  0  0  0  0  0  0  0  0
   15.5896    7.1237   -2.1575 H   0  0  0  0  0  0  0  0  0  0  0  0
   14.4482    4.5476   -2.8174 H   0  0  0  0  0  0  0  0  0  0  0  0
    7.8195    3.3850   -2.2715 H   0  0  0  0  0  0  0  0  0  0  0  0
    4.2860   -0.5009   -2.1449 H   0  0  0  0  0  0  0  0  0  0  0  0
  1  2  1  0  0  0  0
  1 37  1  0  0  0  0
  1 38  1  0  0  0  0
  1 39  1  0  0  0  0
  2  3  1  0  0  0  0
  3  4  1  0  0  0  0
  3 36  2  0  0  0  0
  4  5  2  0  0  0  0
  4 40  1  0  0  0  0
  5  6  1  0  0  0  0
  5 13  1  0  0  0  0
  6  7  2  0  0  0  0
  6  8  1  0  0  0  0
  8  9  1  0  0  0  0
  8 12  1  0  0  0  0
  9 10  1  0  0  0  0
  9 41  1  0  0  0  0
  9 42  1  0  0  0  0
 10 11  1  0  0  0  0
 10 43  1  0  0  0  0
 10 44  1  0  0  0  0
 11 12  1  0  0  0  0
 11 45  1  0  0  0  0
 11 46  1  0  0  0  0
 12 47  1  0  0  0  0
 12 48  1  0  0  0  0
 13 14  2  0  0  0  0
 13 49  1  0  0  0  0
 14 15  1  0  0  0  0
 14 36  1  0  0  0  0
 15 16  1  0  0  0  0
 15 20  1  0  0  0  0
 16 17  1  0  0  0  0
 16 50  1  0  0  0  0
 16 51  1  0  0  0  0
 17 18  1  0  0  0  0
 17 19  1  0  0  0  0
 17 52  1  0  0  0  0
 18 19  1  0  0  0  0
 18 53  1  0  0  0  0
 18 54  1  0  0  0  0
 19 55  1  0  0  0  0
 19 56  1  0  0  0  0
 20 21  1  0  0  0  0
 20 35  2  0  0  0  0
 21 22  2  0  0  0  0
 21 57  1  0  0  0  0
 22 23  1  0  0  0  0
 22 58  1  0  0  0  0
 23 24  1  0  0  0  0
 23 34  2  0  0  0  0
 24 25  2  0  0  0  0
 25 26  1  0  0  0  0
 25 59  1  0  0  0  0
 26 27  1  0  0  0  0
 26 33  2  0  0  0  0
 27 28  1  0  0  0  0
 27 32  2  0  0  0  0
 28 29  2  0  0  0  0
 28 60  1  0  0  0  0
 29 30  1  0  0  0  0
 30 31  1  0  0  0  0
 30 32  1  0  0  0  0
 31 61  1  0  0  0  0
 31 62  1  0  0  0  0
 31 63  1  0  0  0  0
 32 64  1  0  0  0  0
 33 34  1  0  0  0  0
 34 35  1  0  0  0  0
 35 65  1  0  0  0  0
 36 66  1  0  0  0  0
M  END
$$$$
