CHEMBL3644024
 OpenBabel04072215373D

 51 52  0  0  1  0  0  0  0  0999 V2000
   10.3176   14.1994   -4.7725 C   0  0  0  0  0  0  0  0  0  0  0  0
   10.6726   12.7291   -4.9873 C   0  0  0  0  0  0  0  0  0  0  0  0
   12.1033   12.4623   -4.5322 C   0  0  0  0  0  0  0  0  0  0  0  0
    9.4798   11.6861   -4.1478 S   0  0  0  0  0  0  0  0  0  0  0  0
    9.5152   11.9827   -2.7272 O   0  0  0  0  0  0  0  0  0  0  0  0
    8.2234   11.7554   -4.8771 O   0  0  0  0  0  0  0  0  0  0  0  0
   10.0925   10.0274   -4.3440 C   0  0  0  0  0  0  0  0  0  0  0  0
   10.9387    9.4951   -3.3699 C   0  0  0  0  0  0  0  0  0  0  0  0
   11.3617    8.1735   -3.4785 C   0  0  0  0  0  0  0  0  0  0  0  0
   10.9199    7.3596   -4.5321 C   0  0  0  0  0  0  0  0  0  0  0  0
   11.3418    6.0195   -4.6627 N   0  0  0  0  0  0  0  0  0  0  0  0
   11.6034    5.1689   -3.5894 C   0  0  0  0  0  0  0  0  0  0  0  0
   12.5359    4.2297   -3.7742 N   0  0  0  0  0  0  0  0  0  0  0  0
   12.8769    3.5120   -2.6949 C   0  0  0  0  0  0  0  0  0  0  0  0
   12.3475    3.6720   -1.4323 C   0  0  0  0  0  0  0  0  0  0  0  0
   12.9160    2.8534   -0.3364 C   0  0  0  0  0  0  0  0  0  0  0  0
   13.9400    2.0483   -0.7654 F   0  0  0  0  0  0  0  0  0  0  0  0
   13.4750    3.5827    0.6672 F   0  0  0  0  0  0  0  0  0  0  0  0
   12.0435    1.9936    0.2511 F   0  0  0  0  0  0  0  0  0  0  0  0
   11.3244    4.6100   -1.3552 C   0  0  0  0  0  0  0  0  0  0  0  0
   10.6465    4.8715   -0.1809 O   0  0  0  0  0  0  0  0  0  0  0  0
    9.3110    5.4628   -0.3801 C   0  0  2  0  0  0  0  0  0  0  0  0
    9.0546    6.5638    0.6584 C   0  0  0  0  0  0  0  0  0  0  0  0
    8.2348    4.3540   -0.3008 C   0  0  1  0  0  0  0  0  0  0  0  0
    6.8363    4.9133   -0.5535 C   0  0  0  0  0  0  0  0  0  0  0  0
    8.4822    3.3492   -1.2934 O   0  0  0  0  0  0  0  0  0  0  0  0
   10.9846    5.3480   -2.4209 N   0  0  0  0  0  0  0  0  0  0  0  0
   10.1127    7.9232   -5.5274 C   0  0  0  0  0  0  0  0  0  0  0  0
    9.6746    9.2493   -5.4260 C   0  0  0  0  0  0  0  0  0  0  0  0
   11.0108   14.8508   -5.3152 H   0  0  0  0  0  0  0  0  0  0  0  0
   10.3610   14.4705   -3.7113 H   0  0  0  0  0  0  0  0  0  0  0  0
    9.3045   14.4155   -5.1270 H   0  0  0  0  0  0  0  0  0  0  0  0
   10.5828   12.4971   -6.0547 H   0  0  0  0  0  0  0  0  0  0  0  0
   12.2226   12.6396   -3.4581 H   0  0  0  0  0  0  0  0  0  0  0  0
   12.8068   13.1103   -5.0654 H   0  0  0  0  0  0  0  0  0  0  0  0
   12.4056   11.4322   -4.7378 H   0  0  0  0  0  0  0  0  0  0  0  0
   11.2741   10.0960   -2.5254 H   0  0  0  0  0  0  0  0  0  0  0  0
   12.0198    7.7766   -2.7075 H   0  0  0  0  0  0  0  0  0  0  0  0
   12.1357    5.9181   -5.2884 H   0  0  0  0  0  0  0  0  0  0  0  0
   13.6559    2.7715   -2.8951 H   0  0  0  0  0  0  0  0  0  0  0  0
    9.2077    5.9439   -1.3584 H   0  0  0  0  0  0  0  0  0  0  0  0
    8.8590    6.1436    1.6508 H   0  0  0  0  0  0  0  0  0  0  0  0
    8.1845    7.1692    0.3821 H   0  0  0  0  0  0  0  0  0  0  0  0
    9.9083    7.2439    0.7482 H   0  0  0  0  0  0  0  0  0  0  0  0
    8.2772    3.8519    0.6715 H   0  0  0  0  0  0  0  0  0  0  0  0
    6.7903    5.3893   -1.5394 H   0  0  0  0  0  0  0  0  0  0  0  0
    6.5422    5.6500    0.1983 H   0  0  0  0  0  0  0  0  0  0  0  0
    6.0889    4.1133   -0.5565 H   0  0  0  0  0  0  0  0  0  0  0  0
    8.5418    3.8027   -2.1542 H   0  0  0  0  0  0  0  0  0  0  0  0
    9.7725    7.3118   -6.3604 H   0  0  0  0  0  0  0  0  0  0  0  0
    9.0005    9.6501   -6.1779 H   0  0  0  0  0  0  0  0  0  0  0  0
  1  2  1  0  0  0  0
  1 30  1  0  0  0  0
  1 31  1  0  0  0  0
  1 32  1  0  0  0  0
  2  3  1  0  0  0  0
  2  4  1  0  0  0  0
  2 33  1  0  0  0  0
  3 34  1  0  0  0  0
  3 35  1  0  0  0  0
  3 36  1  0  0  0  0
  4  5  2  0  0  0  0
  4  6  2  0  0  0  0
  4  7  1  0  0  0  0
  7  8  1  0  0  0  0
  7 29  2  0  0  0  0
  8  9  2  0  0  0  0
  8 37  1  0  0  0  0
  9 10  1  0  0  0  0
  9 38  1  0  0  0  0
 10 11  1  0  0  0  0
 10 28  2  0  0  0  0
 11 12  1  0  0  0  0
 11 39  1  0  0  0  0
 12 13  1  0  0  0  0
 12 27  2  0  0  0  0
 13 14  2  0  0  0  0
 14 15  1  0  0  0  0
 14 40  1  0  0  0  0
 15 16  1  0  0  0  0
 15 20  2  0  0  0  0
 16 17  1  0  0  0  0
 16 18  1  0  0  0  0
 16 19  1  0  0  0  0
 20 21  1  0  0  0  0
 20 27  1  0  0  0  0
 22 24  1  0  0  0  0
 22 23  1  0  0  0  0
 22 21  1  0  0  0  0
 22 41  1  6  0  0  0
 23 42  1  0  0  0  0
 23 43  1  0  0  0  0
 23 44  1  0  0  0  0
 24 25  1  0  0  0  0
 24 26  1  0  0  0  0
 24 45  1  1  0  0  0
 25 46  1  0  0  0  0
 25 47  1  0  0  0  0
 25 48  1  0  0  0  0
 26 49  1  0  0  0  0
 28 29  1  0  0  0  0
 28 50  1  0  0  0  0
 29 51  1  0  0  0  0
M  END
$$$$
