CHEMBL3975807
 OpenBabel04072215373D

 45 47  0  0  0  0  0  0  0  0999 V2000
    1.9843    2.8221   -3.2045 C   0  0  0  0  0  0  0  0  0  0  0  0
    3.3429    2.4594   -2.9018 N   0  0  0  0  0  0  0  0  0  0  0  0
    3.6552    1.2482   -2.3243 C   0  0  0  0  0  0  0  0  0  0  0  0
    2.8232    0.3844   -2.0695 O   0  0  0  0  0  0  0  0  0  0  0  0
    5.1085    1.0371   -2.0298 C   0  0  0  0  0  0  0  0  0  0  0  0
    5.5145   -0.1708   -1.4822 C   0  0  0  0  0  0  0  0  0  0  0  0
    6.8784   -0.3901   -1.3152 C   0  0  0  0  0  0  0  0  0  0  0  0
    7.4295   -1.5610   -0.8400 O   0  0  0  0  0  0  0  0  0  0  0  0
    6.8202   -2.7693   -1.1034 C   0  0  0  0  0  0  0  0  0  0  0  0
    6.0951   -3.0478   -2.2635 C   0  0  0  0  0  0  0  0  0  0  0  0
    5.4375   -4.2733   -2.4150 C   0  0  0  0  0  0  0  0  0  0  0  0
    5.5533   -5.2590   -1.4298 C   0  0  0  0  0  0  0  0  0  0  0  0
    4.8402   -6.5652   -1.5163 C   0  0  0  0  0  0  0  0  0  0  0  0
    5.3276   -7.5637   -0.9940 O   0  0  0  0  0  0  0  0  0  0  0  0
    3.5191   -6.5955   -2.1967 C   0  0  0  0  0  0  0  0  0  0  0  0
    2.8301   -7.7454   -2.2944 C   0  0  0  0  0  0  0  0  0  0  0  0
    1.5455   -7.7982   -2.9947 C   0  0  0  0  0  0  0  0  0  0  0  0
    0.3451   -7.5801   -2.3088 C   0  0  0  0  0  0  0  0  0  0  0  0
   -0.8728   -7.6031   -2.9968 C   0  0  0  0  0  0  0  0  0  0  0  0
   -0.8956   -7.8366   -4.3715 C   0  0  0  0  0  0  0  0  0  0  0  0
    0.3010   -8.0518   -5.0533 C   0  0  0  0  0  0  0  0  0  0  0  0
    0.2758   -8.3513   -6.9199 Br  0  0  0  0  0  0  0  0  0  0  0  0
    1.5192   -8.0381   -4.3723 C   0  0  0  0  0  0  0  0  0  0  0  0
    6.3822   -5.0223   -0.3234 C   0  0  0  0  0  0  0  0  0  0  0  0
    7.0037   -3.7800   -0.1583 C   0  0  0  0  0  0  0  0  0  0  0  0
    7.7709    0.6414   -1.5941 C   0  0  0  0  0  0  0  0  0  0  0  0
    7.2691    1.8312   -2.1004 C   0  0  0  0  0  0  0  0  0  0  0  0
    5.9595    2.0515   -2.3507 N   0  0  0  0  0  0  0  0  0  0  0  0
    1.9713    3.8236   -3.6394 H   0  0  0  0  0  0  0  0  0  0  0  0
    1.3963    2.8072   -2.2822 H   0  0  0  0  0  0  0  0  0  0  0  0
    1.5656    2.0993   -3.9083 H   0  0  0  0  0  0  0  0  0  0  0  0
    4.1148    3.0888   -3.1036 H   0  0  0  0  0  0  0  0  0  0  0  0
    4.7747   -0.9210   -1.2253 H   0  0  0  0  0  0  0  0  0  0  0  0
    6.0057   -2.3123   -3.0605 H   0  0  0  0  0  0  0  0  0  0  0  0
    4.8555   -4.4376   -3.3178 H   0  0  0  0  0  0  0  0  0  0  0  0
    3.1141   -5.6760   -2.6002 H   0  0  0  0  0  0  0  0  0  0  0  0
    3.2048   -8.6794   -1.8823 H   0  0  0  0  0  0  0  0  0  0  0  0
    0.3479   -7.3906   -1.2385 H   0  0  0  0  0  0  0  0  0  0  0  0
   -1.8041   -7.4348   -2.4592 H   0  0  0  0  0  0  0  0  0  0  0  0
   -1.8453   -7.8473   -4.9008 H   0  0  0  0  0  0  0  0  0  0  0  0
    2.4476   -8.2106   -4.9133 H   0  0  0  0  0  0  0  0  0  0  0  0
    6.5284   -5.8007    0.4247 H   0  0  0  0  0  0  0  0  0  0  0  0
    7.6238   -3.6014    0.7188 H   0  0  0  0  0  0  0  0  0  0  0  0
    8.8353    0.5191   -1.4240 H   0  0  0  0  0  0  0  0  0  0  0  0
    7.9332    2.6604   -2.3303 H   0  0  0  0  0  0  0  0  0  0  0  0
  1  2  1  0  0  0  0
  1 29  1  0  0  0  0
  1 30  1  0  0  0  0
  1 31  1  0  0  0  0
  2  3  1  0  0  0  0
  2 32  1  0  0  0  0
  3  4  2  0  0  0  0
  3  5  1  0  0  0  0
  5  6  1  0  0  0  0
  5 28  2  0  0  0  0
  6  7  2  0  0  0  0
  6 33  1  0  0  0  0
  7  8  1  0  0  0  0
  7 26  1  0  0  0  0
  8  9  1  0  0  0  0
  9 10  1  0  0  0  0
  9 25  2  0  0  0  0
 10 11  2  0  0  0  0
 10 34  1  0  0  0  0
 11 12  1  0  0  0  0
 11 35  1  0  0  0  0
 12 13  1  0  0  0  0
 12 24  2  0  0  0  0
 13 14  2  0  0  0  0
 13 15  1  0  0  0  0
 15 16  2  0  0  0  0
 15 36  1  0  0  0  0
 16 17  1  0  0  0  0
 16 37  1  0  0  0  0
 17 18  1  0  0  0  0
 17 23  2  0  0  0  0
 18 19  2  0  0  0  0
 18 38  1  0  0  0  0
 19 20  1  0  0  0  0
 19 39  1  0  0  0  0
 20 21  2  0  0  0  0
 20 40  1  0  0  0  0
 21 22  1  0  0  0  0
 21 23  1  0  0  0  0
 23 41  1  0  0  0  0
 24 25  1  0  0  0  0
 24 42  1  0  0  0  0
 25 43  1  0  0  0  0
 26 27  2  0  0  0  0
 26 44  1  0  0  0  0
 27 28  1  0  0  0  0
 27 45  1  0  0  0  0
M  END
$$$$
