CHEMBL4469077
 OpenBabel04072215383D

 41 44  0  0  0  0  0  0  0  0999 V2000
   -1.2273    1.0755    1.7889 C   0  0  0  0  0  0  0  0  0  0  0  0
   -0.2857    0.4522    0.8915 N   0  0  0  0  0  0  0  0  0  0  0  0
    0.8825   -0.1703    1.2266 C   0  0  0  0  0  0  0  0  0  0  0  0
    1.4138   -0.6593    0.0503 C   0  0  0  0  0  0  0  0  0  0  0  0
    2.6405   -1.4304   -0.0681 C   0  0  0  0  0  0  0  0  0  0  0  0
    2.7868   -2.3587   -1.1054 C   0  0  0  0  0  0  0  0  0  0  0  0
    3.9634   -3.1034   -1.2417 C   0  0  0  0  0  0  0  0  0  0  0  0
    5.0219   -2.9298   -0.3383 C   0  0  0  0  0  0  0  0  0  0  0  0
    6.2940   -3.7239   -0.4759 C   0  0  0  0  0  0  0  0  0  0  0  0
    7.2684   -3.0573   -1.3190 N   0  0  0  0  0  0  0  0  0  0  0  0
    7.4568   -3.2297   -2.6589 C   0  0  0  0  0  0  0  0  0  0  0  0
    8.6373   -2.5710   -2.9189 C   0  0  0  0  0  0  0  0  0  0  0  0
    9.3373   -2.5119   -4.1861 C   0  0  0  0  0  0  0  0  0  0  0  0
   10.1885   -1.4319   -4.4647 C   0  0  0  0  0  0  0  0  0  0  0  0
   10.8876   -1.3697   -5.6755 C   0  0  0  0  0  0  0  0  0  0  0  0
   10.7533   -2.3888   -6.6176 C   0  0  0  0  0  0  0  0  0  0  0  0
    9.9169   -3.4699   -6.3504 C   0  0  0  0  0  0  0  0  0  0  0  0
    9.2171   -3.5243   -5.1459 C   0  0  0  0  0  0  0  0  0  0  0  0
    8.4388   -4.5966   -4.9272 F   0  0  0  0  0  0  0  0  0  0  0  0
    9.0810   -1.9783   -1.7628 N   0  0  0  0  0  0  0  0  0  0  0  0
    8.2420   -2.2963   -0.7833 N   0  0  0  0  0  0  0  0  0  0  0  0
    4.8783   -1.9979    0.6965 C   0  0  0  0  0  0  0  0  0  0  0  0
    3.6984   -1.2596    0.8342 C   0  0  0  0  0  0  0  0  0  0  0  0
    0.4826   -0.2533   -0.9352 C   0  0  0  0  0  0  0  0  0  0  0  0
   -0.5510    0.4222   -0.4261 N   0  0  0  0  0  0  0  0  0  0  0  0
   -0.8168    1.0807    2.8015 H   0  0  0  0  0  0  0  0  0  0  0  0
   -2.1549    0.4979    1.7642 H   0  0  0  0  0  0  0  0  0  0  0  0
   -1.4032    2.1001    1.4523 H   0  0  0  0  0  0  0  0  0  0  0  0
    1.2149   -0.2285    2.2534 H   0  0  0  0  0  0  0  0  0  0  0  0
    1.9809   -2.5265   -1.8175 H   0  0  0  0  0  0  0  0  0  0  0  0
    4.0407   -3.8185   -2.0570 H   0  0  0  0  0  0  0  0  0  0  0  0
    6.0917   -4.7080   -0.9155 H   0  0  0  0  0  0  0  0  0  0  0  0
    6.7561   -3.9032    0.5026 H   0  0  0  0  0  0  0  0  0  0  0  0
    6.7865   -3.8111   -3.2733 H   0  0  0  0  0  0  0  0  0  0  0  0
   10.3118   -0.6293   -3.7390 H   0  0  0  0  0  0  0  0  0  0  0  0
   11.5418   -0.5248   -5.8797 H   0  0  0  0  0  0  0  0  0  0  0  0
   11.3022   -2.3433   -7.5548 H   0  0  0  0  0  0  0  0  0  0  0  0
    9.8078   -4.2775   -7.0678 H   0  0  0  0  0  0  0  0  0  0  0  0
    5.6900   -1.8325    1.4042 H   0  0  0  0  0  0  0  0  0  0  0  0
    3.6279   -0.5386    1.6450 H   0  0  0  0  0  0  0  0  0  0  0  0
    0.5160   -0.4221   -2.0036 H   0  0  0  0  0  0  0  0  0  0  0  0
  1  2  1  0  0  0  0
  1 26  1  0  0  0  0
  1 27  1  0  0  0  0
  1 28  1  0  0  0  0
  2  3  1  0  0  0  0
  2 25  1  0  0  0  0
  3  4  2  0  0  0  0
  3 29  1  0  0  0  0
  4  5  1  0  0  0  0
  4 24  1  0  0  0  0
  5  6  1  0  0  0  0
  5 23  2  0  0  0  0
  6  7  2  0  0  0  0
  6 30  1  0  0  0  0
  7  8  1  0  0  0  0
  7 31  1  0  0  0  0
  8  9  1  0  0  0  0
  8 22  2  0  0  0  0
  9 10  1  0  0  0  0
  9 32  1  0  0  0  0
  9 33  1  0  0  0  0
 10 11  1  0  0  0  0
 10 21  1  0  0  0  0
 11 12  2  0  0  0  0
 11 34  1  0  0  0  0
 12 13  1  0  0  0  0
 12 20  1  0  0  0  0
 13 14  1  0  0  0  0
 13 18  2  0  0  0  0
 14 15  2  0  0  0  0
 14 35  1  0  0  0  0
 15 16  1  0  0  0  0
 15 36  1  0  0  0  0
 16 17  2  0  0  0  0
 16 37  1  0  0  0  0
 17 18  1  0  0  0  0
 17 38  1  0  0  0  0
 18 19  1  0  0  0  0
 20 21  2  0  0  0  0
 22 23  1  0  0  0  0
 22 39  1  0  0  0  0
 23 40  1  0  0  0  0
 24 25  2  0  0  0  0
 24 41  1  0  0  0  0
M  END
$$$$
