CHEMBL3890006
 OpenBabel04072215373D

 43 46  0  0  0  0  0  0  0  0999 V2000
    2.4124    0.4122   -0.1981 C   0  0  0  0  0  0  0  0  0  0  0  0
    0.9171    0.3177   -0.0959 C   0  0  0  0  0  0  0  0  0  0  0  0
    0.2570   -0.9097   -0.2231 C   0  0  0  0  0  0  0  0  0  0  0  0
   -1.1374   -0.9761   -0.1170 C   0  0  0  0  0  0  0  0  0  0  0  0
   -1.8914    0.1873    0.1065 C   0  0  0  0  0  0  0  0  0  0  0  0
   -3.3762    0.0790    0.2427 C   0  0  0  0  0  0  0  0  0  0  0  0
   -3.8289   -0.9691    0.6904 O   0  0  0  0  0  0  0  0  0  0  0  0
   -4.1168    1.1700   -0.2110 N   0  0  0  0  0  0  0  0  0  0  0  0
   -5.5323    1.2832   -0.1809 C   0  0  0  0  0  0  0  0  0  0  0  0
   -6.3273    0.4678    0.6271 C   0  0  0  0  0  0  0  0  0  0  0  0
   -7.7196    0.5662    0.5906 C   0  0  0  0  0  0  0  0  0  0  0  0
   -8.3393    1.4860   -0.2569 C   0  0  0  0  0  0  0  0  0  0  0  0
   -7.5658    2.3354   -1.0561 C   0  0  0  0  0  0  0  0  0  0  0  0
   -8.2200    3.2544   -1.9576 C   0  0  0  0  0  0  0  0  0  0  0  0
   -8.8005    3.9777   -2.7302 C   0  0  0  0  0  0  0  0  0  0  0  0
   -9.5184    4.7914   -3.6962 C   0  0  0  0  0  0  0  0  0  0  0  0
  -10.4645    4.1900   -4.6739 C   0  0  0  0  0  0  0  0  0  0  0  0
  -11.0506    5.0185   -5.5502 C   0  0  0  0  0  0  0  0  0  0  0  0
  -10.7560    6.3951   -5.4976 C   0  0  0  0  0  0  0  0  0  0  0  0
  -11.1780    7.4029   -6.2382 N   0  0  0  0  0  0  0  0  0  0  0  0
  -10.5578    8.5125   -5.7204 C   0  0  0  0  0  0  0  0  0  0  0  0
   -9.7542    8.1770   -4.6545 C   0  0  0  0  0  0  0  0  0  0  0  0
   -9.8697    6.8185   -4.5172 N   0  0  0  0  0  0  0  0  0  0  0  0
   -9.2169    6.0478   -3.5888 N   0  0  0  0  0  0  0  0  0  0  0  0
   -6.1615    2.2440   -0.9977 C   0  0  0  0  0  0  0  0  0  0  0  0
   -1.2316    1.4103    0.2521 C   0  0  0  0  0  0  0  0  0  0  0  0
    0.1614    1.4727    0.1461 C   0  0  0  0  0  0  0  0  0  0  0  0
    2.8679   -0.5635   -0.3968 H   0  0  0  0  0  0  0  0  0  0  0  0
    2.8329    0.7946    0.7380 H   0  0  0  0  0  0  0  0  0  0  0  0
    2.6908    1.0846   -1.0163 H   0  0  0  0  0  0  0  0  0  0  0  0
    0.8218   -1.8239   -0.3976 H   0  0  0  0  0  0  0  0  0  0  0  0
   -1.6323   -1.9425   -0.2056 H   0  0  0  0  0  0  0  0  0  0  0  0
   -3.6240    1.8749   -0.7429 H   0  0  0  0  0  0  0  0  0  0  0  0
   -5.8889   -0.2539    1.3105 H   0  0  0  0  0  0  0  0  0  0  0  0
   -8.3152   -0.0899    1.2212 H   0  0  0  0  0  0  0  0  0  0  0  0
   -9.4241    1.5259   -0.2877 H   0  0  0  0  0  0  0  0  0  0  0  0
  -10.6491    3.1254   -4.6529 H   0  0  0  0  0  0  0  0  0  0  0  0
  -11.7485    4.6639   -6.3000 H   0  0  0  0  0  0  0  0  0  0  0  0
  -10.7249    9.4951   -6.1433 H   0  0  0  0  0  0  0  0  0  0  0  0
   -9.1243    8.7624   -4.0024 H   0  0  0  0  0  0  0  0  0  0  0  0
   -5.5673    2.9026   -1.6252 H   0  0  0  0  0  0  0  0  0  0  0  0
   -1.7798    2.3171    0.4863 H   0  0  0  0  0  0  0  0  0  0  0  0
    0.6612    2.4321    0.2679 H   0  0  0  0  0  0  0  0  0  0  0  0
  1  2  1  0  0  0  0
  1 28  1  0  0  0  0
  1 29  1  0  0  0  0
  1 30  1  0  0  0  0
  2  3  1  0  0  0  0
  2 27  2  0  0  0  0
  3  4  2  0  0  0  0
  3 31  1  0  0  0  0
  4  5  1  0  0  0  0
  4 32  1  0  0  0  0
  5  6  1  0  0  0  0
  5 26  2  0  0  0  0
  6  7  2  0  0  0  0
  6  8  1  0  0  0  0
  8  9  1  0  0  0  0
  8 33  1  0  0  0  0
  9 10  1  0  0  0  0
  9 25  2  0  0  0  0
 10 11  2  0  0  0  0
 10 34  1  0  0  0  0
 11 12  1  0  0  0  0
 11 35  1  0  0  0  0
 12 13  2  0  0  0  0
 12 36  1  0  0  0  0
 13 14  1  0  0  0  0
 13 25  1  0  0  0  0
 14 15  3  0  0  0  0
 15 16  1  0  0  0  0
 16 17  1  0  0  0  0
 16 24  2  0  0  0  0
 17 18  2  0  0  0  0
 17 37  1  0  0  0  0
 18 19  1  0  0  0  0
 18 38  1  0  0  0  0
 19 20  2  0  0  0  0
 19 23  1  0  0  0  0
 20 21  1  0  0  0  0
 21 22  2  0  0  0  0
 21 39  1  0  0  0  0
 22 23  1  0  0  0  0
 22 40  1  0  0  0  0
 23 24  1  0  0  0  0
 25 41  1  0  0  0  0
 26 27  1  0  0  0  0
 26 42  1  0  0  0  0
 27 43  1  0  0  0  0
M  END
$$$$
