CHEMBL203346
 OpenBabel04072215363D

 52 56  0  0  0  0  0  0  0  0999 V2000
   -0.3921   -0.9540    2.1545 C   0  0  0  0  0  0  0  0  0  0  0  0
    0.7156   -0.3043    1.3293 C   0  0  0  0  0  0  0  0  0  0  0  0
    0.1652    0.1928   -0.0131 C   0  0  0  0  0  0  0  0  0  0  0  0
    1.3908    0.8136    2.1060 C   0  0  0  0  0  0  0  0  0  0  0  0
    2.7440    0.7316    2.4397 C   0  0  0  0  0  0  0  0  0  0  0  0
    3.4055    1.7890    3.0629 C   0  0  0  0  0  0  0  0  0  0  0  0
    2.7339    2.9912    3.3494 C   0  0  0  0  0  0  0  0  0  0  0  0
    3.4171    4.0998    3.9181 N   0  0  0  0  0  0  0  0  0  0  0  0
    3.1644    5.4784    3.6806 C   0  0  0  0  0  0  0  0  0  0  0  0
    2.5201    5.9071    2.5728 N   0  0  0  0  0  0  0  0  0  0  0  0
    2.3857    7.2468    2.2517 N   0  0  0  0  0  0  0  0  0  0  0  0
    2.9005    8.2125    3.0474 C   0  0  0  0  0  0  0  0  0  0  0  0
    2.9193    9.5940    2.4844 C   0  0  0  0  0  0  0  0  0  0  0  0
    2.6896   10.6990    3.3498 C   0  0  0  0  0  0  0  0  0  0  0  0
    2.8734   12.0185    2.9740 C   0  0  0  0  0  0  0  0  0  0  0  0
    3.4547   12.2698    1.7424 C   0  0  0  0  0  0  0  0  0  0  0  0
    3.7233   11.2132    0.8708 C   0  0  0  0  0  0  0  0  0  0  0  0
    4.4789   11.4407   -0.2573 C   0  0  0  0  0  0  0  0  0  0  0  0
    4.2998   10.7921   -1.4218 N   0  0  0  0  0  0  0  0  0  0  0  0
    3.5651    9.6696   -1.3241 C   0  0  0  0  0  0  0  0  0  0  0  0
    3.2012    9.1197   -0.0824 C   0  0  0  0  0  0  0  0  0  0  0  0
    3.2668    9.9102    1.1027 C   0  0  0  0  0  0  0  0  0  0  0  0
    3.4827    7.8165    4.3116 C   0  0  0  0  0  0  0  0  0  0  0  0
    4.0227    8.7629    5.2655 C   0  0  0  0  0  0  0  0  0  0  0  0
    4.5764    8.3752    6.4674 C   0  0  0  0  0  0  0  0  0  0  0  0
    4.6485    7.0353    6.7952 C   0  0  0  0  0  0  0  0  0  0  0  0
    4.1788    6.0913    5.8908 C   0  0  0  0  0  0  0  0  0  0  0  0
    3.6069    6.4532    4.6299 C   0  0  0  0  0  0  0  0  0  0  0  0
    1.3712    3.0479    3.0738 C   0  0  0  0  0  0  0  0  0  0  0  0
    0.6925    1.9766    2.4753 C   0  0  0  0  0  0  0  0  0  0  0  0
   -0.8890   -1.7503    1.5887 H   0  0  0  0  0  0  0  0  0  0  0  0
   -1.1565   -0.2240    2.4422 H   0  0  0  0  0  0  0  0  0  0  0  0
    0.0108   -1.3911    3.0749 H   0  0  0  0  0  0  0  0  0  0  0  0
    1.4668   -1.0759    1.1021 H   0  0  0  0  0  0  0  0  0  0  0  0
   -0.6503    0.9114    0.1223 H   0  0  0  0  0  0  0  0  0  0  0  0
   -0.2294   -0.6428   -0.6008 H   0  0  0  0  0  0  0  0  0  0  0  0
    0.9456    0.6814   -0.6064 H   0  0  0  0  0  0  0  0  0  0  0  0
    3.3167   -0.1644    2.1744 H   0  0  0  0  0  0  0  0  0  0  0  0
    4.4692    1.6732    3.2657 H   0  0  0  0  0  0  0  0  0  0  0  0
    4.3821    3.9121    4.1483 H   0  0  0  0  0  0  0  0  0  0  0  0
    2.3692   10.5476    4.3839 H   0  0  0  0  0  0  0  0  0  0  0  0
    2.6092   12.8266    3.6423 H   0  0  0  0  0  0  0  0  0  0  0  0
    3.6014   13.3001    1.4252 H   0  0  0  0  0  0  0  0  0  0  0  0
    5.4666   11.8886   -0.1635 H   0  0  0  0  0  0  0  0  0  0  0  0
    3.3328    9.2063   -2.2708 H   0  0  0  0  0  0  0  0  0  0  0  0
    2.7708    8.1241   -0.0846 H   0  0  0  0  0  0  0  0  0  0  0  0
    4.0402    9.8179    5.0803 H   0  0  0  0  0  0  0  0  0  0  0  0
    4.9688    9.1597    7.1421 H   0  0  0  0  0  0  0  0  0  0  0  0
    5.0909    6.7390    7.7451 H   0  0  0  0  0  0  0  0  0  0  0  0
    4.2571    5.0495    6.1862 H   0  0  0  0  0  0  0  0  0  0  0  0
    0.8021    3.9473    3.3049 H   0  0  0  0  0  0  0  0  0  0  0  0
   -0.3648    2.0771    2.2700 H   0  0  0  0  0  0  0  0  0  0  0  0
  1  2  1  0  0  0  0
  1 31  1  0  0  0  0
  1 32  1  0  0  0  0
  1 33  1  0  0  0  0
  2  3  1  0  0  0  0
  2  4  1  0  0  0  0
  2 34  1  0  0  0  0
  3 35  1  0  0  0  0
  3 36  1  0  0  0  0
  3 37  1  0  0  0  0
  4  5  1  0  0  0  0
  4 30  2  0  0  0  0
  5  6  2  0  0  0  0
  5 38  1  0  0  0  0
  6  7  1  0  0  0  0
  6 39  1  0  0  0  0
  7  8  1  0  0  0  0
  7 29  2  0  0  0  0
  8  9  1  0  0  0  0
  8 40  1  0  0  0  0
  9 10  1  0  0  0  0
  9 28  2  0  0  0  0
 10 11  2  0  0  0  0
 11 12  1  0  0  0  0
 12 13  1  0  0  0  0
 12 23  2  0  0  0  0
 13 14  1  0  0  0  0
 13 22  2  0  0  0  0
 14 15  2  0  0  0  0
 14 41  1  0  0  0  0
 15 16  1  0  0  0  0
 15 42  1  0  0  0  0
 16 17  2  0  0  0  0
 16 43  1  0  0  0  0
 17 18  1  0  0  0  0
 17 22  1  0  0  0  0
 18 19  2  0  0  0  0
 18 44  1  0  0  0  0
 19 20  1  0  0  0  0
 20 21  2  0  0  0  0
 20 45  1  0  0  0  0
 21 22  1  0  0  0  0
 21 46  1  0  0  0  0
 23 24  1  0  0  0  0
 23 28  1  0  0  0  0
 24 25  2  0  0  0  0
 24 47  1  0  0  0  0
 25 26  1  0  0  0  0
 25 48  1  0  0  0  0
 26 27  2  0  0  0  0
 26 49  1  0  0  0  0
 27 28  1  0  0  0  0
 27 50  1  0  0  0  0
 29 30  1  0  0  0  0
 29 51  1  0  0  0  0
 30 52  1  0  0  0  0
M  END
$$$$
