CHEMBL513147
 OpenBabel04072215383D

 53 58  0  0  0  0  0  0  0  0999 V2000
   -1.0391    1.0607   -3.3624 C   0  0  0  0  0  0  0  0  0  0  0  0
   -1.0315   -0.3078   -3.5723 C   0  0  0  0  0  0  0  0  0  0  0  0
   -1.0533   -1.1685   -2.4762 C   0  0  0  0  0  0  0  0  0  0  0  0
   -1.1330   -0.6927   -1.1372 C   0  0  0  0  0  0  0  0  0  0  0  0
   -1.2072   -1.5033    0.0396 C   0  0  0  0  0  0  0  0  0  0  0  0
   -1.2811   -2.9681   -0.0141 C   0  0  0  0  0  0  0  0  0  0  0  0
   -1.9307   -3.8162   -0.9385 C   0  0  0  0  0  0  0  0  0  0  0  0
   -1.7419   -5.1122   -0.7034 N   0  0  0  0  0  0  0  0  0  0  0  0
   -1.0088   -5.1394    0.4308 N   0  0  0  0  0  0  0  0  0  0  0  0
   -0.5547   -6.2672    1.0984 C   0  0  0  0  0  0  0  0  0  0  0  0
    0.1347   -6.1458    2.2403 C   0  0  0  0  0  0  0  0  0  0  0  0
    0.6297   -7.2897    2.9964 C   0  0  0  0  0  0  0  0  0  0  0  0
    1.8824   -7.8336    2.7207 C   0  0  0  0  0  0  0  0  0  0  0  0
    2.3672   -8.8998    3.4863 C   0  0  0  0  0  0  0  0  0  0  0  0
    1.6220   -9.4578    4.5358 C   0  0  0  0  0  0  0  0  0  0  0  0
    2.1067  -10.4952    5.3034 N   0  0  0  0  0  0  0  0  0  0  0  0
    3.5343  -10.6686    5.6098 C   0  0  0  0  0  0  0  0  0  0  0  0
    4.0048  -12.0857    5.2148 C   0  0  0  0  0  0  0  0  0  0  0  0
    3.1771  -13.1670    5.7942 N   0  0  0  0  0  0  0  0  0  0  0  0
    1.7677  -12.9399    5.4073 C   0  0  0  0  0  0  0  0  0  0  0  0
    1.2230  -11.5510    5.8178 C   0  0  0  0  0  0  0  0  0  0  0  0
    0.3506   -8.9111    4.7669 C   0  0  0  0  0  0  0  0  0  0  0  0
   -0.1454   -7.8433    4.0132 C   0  0  0  0  0  0  0  0  0  0  0  0
    0.3461   -4.7382    2.6991 C   0  0  0  0  0  0  0  0  0  0  0  0
   -0.0442   -3.6607    2.0856 N   0  0  0  0  0  0  0  0  0  0  0  0
   -0.7349   -3.8484    0.9124 C   0  0  0  0  0  0  0  0  0  0  0  0
   -1.2463   -0.8685    1.2890 C   0  0  0  0  0  0  0  0  0  0  0  0
   -1.2032    0.5094    1.3441 C   0  0  0  0  0  0  0  0  0  0  0  0
   -1.1512    1.2965    0.2564 N   0  0  0  0  0  0  0  0  0  0  0  0
   -1.1135    0.7110   -0.9496 C   0  0  0  0  0  0  0  0  0  0  0  0
   -1.0701    1.5488   -2.0567 C   0  0  0  0  0  0  0  0  0  0  0  0
   -1.0104    1.7461   -4.2021 H   0  0  0  0  0  0  0  0  0  0  0  0
   -1.0016   -0.7096   -4.5814 H   0  0  0  0  0  0  0  0  0  0  0  0
   -0.9934   -2.2296   -2.6949 H   0  0  0  0  0  0  0  0  0  0  0  0
   -2.5308   -3.5434   -1.7963 H   0  0  0  0  0  0  0  0  0  0  0  0
   -0.8022   -7.2162    0.6401 H   0  0  0  0  0  0  0  0  0  0  0  0
    2.4950   -7.4397    1.9128 H   0  0  0  0  0  0  0  0  0  0  0  0
    3.3375   -9.3106    3.2211 H   0  0  0  0  0  0  0  0  0  0  0  0
    3.6705  -10.5322    6.6905 H   0  0  0  0  0  0  0  0  0  0  0  0
    4.1746   -9.9218    5.1294 H   0  0  0  0  0  0  0  0  0  0  0  0
    5.0392  -12.2257    5.5465 H   0  0  0  0  0  0  0  0  0  0  0  0
    4.0062  -12.1833    4.1222 H   0  0  0  0  0  0  0  0  0  0  0  0
    3.2365  -13.0973    6.8102 H   0  0  0  0  0  0  0  0  0  0  0  0
    1.1478  -13.7178    5.8652 H   0  0  0  0  0  0  0  0  0  0  0  0
    1.6745  -13.0610    4.3203 H   0  0  0  0  0  0  0  0  0  0  0  0
    1.1744  -11.4754    6.9109 H   0  0  0  0  0  0  0  0  0  0  0  0
    0.1999  -11.4693    5.4348 H   0  0  0  0  0  0  0  0  0  0  0  0
   -0.2687   -9.2896    5.5762 H   0  0  0  0  0  0  0  0  0  0  0  0
   -1.1335   -7.4491    4.2395 H   0  0  0  0  0  0  0  0  0  0  0  0
    0.8860   -4.6296    3.6559 H   0  0  0  0  0  0  0  0  0  0  0  0
   -1.3086   -1.4314    2.2160 H   0  0  0  0  0  0  0  0  0  0  0  0
   -1.2229    1.0314    2.2963 H   0  0  0  0  0  0  0  0  0  0  0  0
   -1.0578    2.6248   -1.8949 H   0  0  0  0  0  0  0  0  0  0  0  0
  1  2  1  0  0  0  0
  1 31  2  0  0  0  0
  1 32  1  0  0  0  0
  2  3  2  0  0  0  0
  2 33  1  0  0  0  0
  3  4  1  0  0  0  0
  3 34  1  0  0  0  0
  4  5  1  0  0  0  0
  4 30  2  0  0  0  0
  5  6  1  0  0  0  0
  5 27  2  0  0  0  0
  6  7  1  0  0  0  0
  6 26  2  0  0  0  0
  7  8  2  0  0  0  0
  7 35  1  0  0  0  0
  8  9  1  0  0  0  0
  9 10  1  0  0  0  0
  9 26  1  0  0  0  0
 10 11  2  0  0  0  0
 10 36  1  0  0  0  0
 11 12  1  0  0  0  0
 11 24  1  0  0  0  0
 12 13  1  0  0  0  0
 12 23  2  0  0  0  0
 13 14  2  0  0  0  0
 13 37  1  0  0  0  0
 14 15  1  0  0  0  0
 14 38  1  0  0  0  0
 15 16  1  0  0  0  0
 15 22  2  0  0  0  0
 16 17  1  0  0  0  0
 16 21  1  0  0  0  0
 17 18  1  0  0  0  0
 17 39  1  0  0  0  0
 17 40  1  0  0  0  0
 18 19  1  0  0  0  0
 18 41  1  0  0  0  0
 18 42  1  0  0  0  0
 19 20  1  0  0  0  0
 19 43  1  0  0  0  0
 20 21  1  0  0  0  0
 20 44  1  0  0  0  0
 20 45  1  0  0  0  0
 21 46  1  0  0  0  0
 21 47  1  0  0  0  0
 22 23  1  0  0  0  0
 22 48  1  0  0  0  0
 23 49  1  0  0  0  0
 24 25  2  0  0  0  0
 24 50  1  0  0  0  0
 25 26  1  0  0  0  0
 27 28  1  0  0  0  0
 27 51  1  0  0  0  0
 28 29  2  0  0  0  0
 28 52  1  0  0  0  0
 29 30  1  0  0  0  0
 30 31  1  0  0  0  0
 31 53  1  0  0  0  0
M  END
$$$$
