CHEMBL4634634
 OpenBabel04072215383D

 50 53  0  0  1  0  0  0  0  0999 V2000
    0.7023   -1.6246    0.2867 C   0  0  0  0  0  0  0  0  0  0  0  0
    1.8147   -1.6003   -0.7057 C   0  0  2  0  0  0  0  0  0  0  0  0
    2.0945   -2.8155   -1.5450 C   0  0  0  0  0  0  0  0  0  0  0  0
    3.0729   -2.4067   -0.4595 C   0  0  1  0  0  0  0  0  0  0  0  0
    4.4158   -1.8773   -0.8532 C   0  0  0  0  0  0  0  0  0  0  0  0
    4.6246   -1.5841   -2.0267 O   0  0  0  0  0  0  0  0  0  0  0  0
    5.3892   -1.7550    0.1328 N   0  0  0  0  0  0  0  0  0  0  0  0
    5.1817   -2.0373    1.5583 C   0  0  0  0  0  0  0  0  0  0  0  0
    6.0782   -1.1998    2.5036 C   0  0  0  0  0  0  0  0  0  0  0  0
    7.4587   -1.1075    2.0120 N   0  0  0  0  0  0  0  0  0  0  0  0
    8.5952   -1.2912    2.7635 C   0  0  0  0  0  0  0  0  0  0  0  0
    8.5816   -1.5910    4.1280 C   0  0  0  0  0  0  0  0  0  0  0  0
    9.6848   -1.8344    4.8802 N   0  0  0  0  0  0  0  0  0  0  0  0
   10.8684   -1.7423    4.2239 C   0  0  0  0  0  0  0  0  0  0  0  0
   12.0165   -2.0607    5.0210 C   0  0  0  0  0  0  0  0  0  0  0  0
   12.9559   -2.3057    5.6581 N   0  0  0  0  0  0  0  0  0  0  0  0
   10.9376   -1.4019    2.8784 C   0  0  0  0  0  0  0  0  0  0  0  0
   12.1726   -1.2056    2.1353 C   0  0  0  0  0  0  0  0  0  0  0  0
   12.4545   -1.4370    0.7688 C   0  0  0  0  0  0  0  0  0  0  0  0
   13.6985   -1.0837    0.4287 N   0  0  0  0  0  0  0  0  0  0  0  0
   14.2082   -0.5868    1.5679 N   0  0  0  0  0  0  0  0  0  0  0  0
   15.5363   -0.0218    1.5948 C   0  0  0  0  0  0  0  0  0  0  0  0
   13.3339   -0.6342    2.6176 C   0  0  0  0  0  0  0  0  0  0  0  0
    9.8011   -1.2004    2.1477 N   0  0  0  0  0  0  0  0  0  0  0  0
    7.5799   -0.6776    0.6084 C   0  0  0  0  0  0  0  0  0  0  0  0
    6.7997   -1.6486   -0.3003 C   0  0  1  0  0  0  0  0  0  0  0  0
    7.4605   -3.0353   -0.3263 C   0  0  0  0  0  0  0  0  0  0  0  0
   -0.1901   -1.1476   -0.1309 H   0  0  0  0  0  0  0  0  0  0  0  0
    0.9904   -1.0793    1.1903 H   0  0  0  0  0  0  0  0  0  0  0  0
    0.4336   -2.6461    0.5761 H   0  0  0  0  0  0  0  0  0  0  0  0
    1.9131   -0.6297   -1.1812 H   0  0  0  0  0  0  0  0  0  0  0  0
    2.3762   -2.6604   -2.5818 H   0  0  0  0  0  0  0  0  0  0  0  0
    1.5217   -3.7208   -1.3824 H   0  0  0  0  0  0  0  0  0  0  0  0
    3.0766   -3.0753    0.3943 H   0  0  0  0  0  0  0  0  0  0  0  0
    5.3867   -3.1051    1.7029 H   0  0  0  0  0  0  0  0  0  0  0  0
    4.1368   -1.8648    1.8317 H   0  0  0  0  0  0  0  0  0  0  0  0
    6.0024   -1.6503    3.4964 H   0  0  0  0  0  0  0  0  0  0  0  0
    5.6713   -0.1846    2.5811 H   0  0  0  0  0  0  0  0  0  0  0  0
    7.6609   -1.6533    4.6955 H   0  0  0  0  0  0  0  0  0  0  0  0
   11.8017   -1.8490    0.0095 H   0  0  0  0  0  0  0  0  0  0  0  0
   16.0161   -0.1586    0.6228 H   0  0  0  0  0  0  0  0  0  0  0  0
   16.1124   -0.5295    2.3726 H   0  0  0  0  0  0  0  0  0  0  0  0
   15.4469    1.0440    1.8217 H   0  0  0  0  0  0  0  0  0  0  0  0
   13.6183   -0.2413    3.5844 H   0  0  0  0  0  0  0  0  0  0  0  0
    8.6112   -0.5984    0.2485 H   0  0  0  0  0  0  0  0  0  0  0  0
    7.1462    0.3272    0.5194 H   0  0  0  0  0  0  0  0  0  0  0  0
    6.8352   -1.2509   -1.3211 H   0  0  0  0  0  0  0  0  0  0  0  0
    7.4974   -3.4913    0.6696 H   0  0  0  0  0  0  0  0  0  0  0  0
    8.4888   -2.9697   -0.6963 H   0  0  0  0  0  0  0  0  0  0  0  0
    6.9043   -3.7215   -0.9729 H   0  0  0  0  0  0  0  0  0  0  0  0
  1  2  1  0  0  0  0
  1 28  1  0  0  0  0
  1 29  1  0  0  0  0
  1 30  1  0  0  0  0
  2  3  1  0  0  0  0
  2  4  1  0  0  0  0
  2 31  1  6  0  0  0
  3  4  1  0  0  0  0
  3 32  1  0  0  0  0
  3 33  1  0  0  0  0
  4  5  1  0  0  0  0
  4 34  1  1  0  0  0
  5  6  2  0  0  0  0
  5  7  1  0  0  0  0
  7  8  1  0  0  0  0
  7 26  1  0  0  0  0
  8  9  1  0  0  0  0
  8 35  1  0  0  0  0
  8 36  1  0  0  0  0
  9 10  1  0  0  0  0
  9 37  1  0  0  0  0
  9 38  1  0  0  0  0
 10 11  1  0  0  0  0
 10 25  1  0  0  0  0
 11 12  1  0  0  0  0
 11 24  2  0  0  0  0
 12 13  2  0  0  0  0
 12 39  1  0  0  0  0
 13 14  1  0  0  0  0
 14 15  1  0  0  0  0
 14 17  2  0  0  0  0
 15 16  3  0  0  0  0
 17 18  1  0  0  0  0
 17 24  1  0  0  0  0
 18 19  1  0  0  0  0
 18 23  2  0  0  0  0
 19 20  2  0  0  0  0
 19 40  1  0  0  0  0
 20 21  1  0  0  0  0
 21 22  1  0  0  0  0
 21 23  1  0  0  0  0
 22 41  1  0  0  0  0
 22 42  1  0  0  0  0
 22 43  1  0  0  0  0
 23 44  1  0  0  0  0
 25 26  1  0  0  0  0
 25 45  1  0  0  0  0
 25 46  1  0  0  0  0
 26 27  1  0  0  0  0
 26 47  1  6  0  0  0
 27 48  1  0  0  0  0
 27 49  1  0  0  0  0
 27 50  1  0  0  0  0
M  END
$$$$
