CHEMBL1681932
 OpenBabel04072215363D

 42 43  0  0  0  0  0  0  0  0999 V2000
    0.2694    3.3414   -1.5982 C   0  0  0  0  0  0  0  0  0  0  0  0
    1.6466    3.8701   -1.9437 C   0  0  0  0  0  0  0  0  0  0  0  0
    2.7122    3.0908   -1.3432 N   0  0  0  0  0  0  0  0  0  0  0  0
    4.0063    3.5299   -1.5258 C   0  0  0  0  0  0  0  0  0  0  0  0
    4.2848    4.5598   -2.1250 O   0  0  0  0  0  0  0  0  0  0  0  0
    4.9212    2.6368   -1.0116 N   0  0  0  0  0  0  0  0  0  0  0  0
    6.3181    2.8732   -1.1122 C   0  0  0  0  0  0  0  0  0  0  0  0
    6.8626    4.1094   -0.7468 C   0  0  0  0  0  0  0  0  0  0  0  0
    8.2419    4.3351   -0.8480 C   0  0  0  0  0  0  0  0  0  0  0  0
    9.0862    3.3305   -1.3228 C   0  0  0  0  0  0  0  0  0  0  0  0
   10.4269    3.6520   -1.4326 O   0  0  0  0  0  0  0  0  0  0  0  0
   11.3600    2.6429   -1.2389 C   0  0  0  0  0  0  0  0  0  0  0  0
   11.0608    1.6648   -0.3522 N   0  0  0  0  0  0  0  0  0  0  0  0
   11.9418    0.6680   -0.2701 C   0  0  0  0  0  0  0  0  0  0  0  0
   13.0767    0.5639   -0.9720 N   0  0  0  0  0  0  0  0  0  0  0  0
   13.3657    1.5747   -1.8106 C   0  0  0  0  0  0  0  0  0  0  0  0
   14.6149    1.4813   -2.4197 N   0  0  0  0  0  0  0  0  0  0  0  0
   12.5344    2.6737   -1.9655 C   0  0  0  0  0  0  0  0  0  0  0  0
   12.8476    3.7864   -2.8738 C   0  0  0  0  0  0  0  0  0  0  0  0
   13.6070    3.6218   -3.9125 N   0  0  0  0  0  0  0  0  0  0  0  0
   13.7498    4.8470   -4.5783 O   0  0  0  0  0  0  0  0  0  0  0  0
   14.5405    4.6330   -5.7431 C   0  0  0  0  0  0  0  0  0  0  0  0
    8.5402    2.1062   -1.7268 C   0  0  0  0  0  0  0  0  0  0  0  0
    7.1714    1.8677   -1.5860 C   0  0  0  0  0  0  0  0  0  0  0  0
    6.5456    0.3350   -2.0911 Cl  0  0  0  0  0  0  0  0  0  0  0  0
   -0.4963    3.9101   -2.1359 H   0  0  0  0  0  0  0  0  0  0  0  0
    0.0743    3.4390   -0.5254 H   0  0  0  0  0  0  0  0  0  0  0  0
    0.1667    2.2854   -1.8663 H   0  0  0  0  0  0  0  0  0  0  0  0
    1.7448    4.9108   -1.6184 H   0  0  0  0  0  0  0  0  0  0  0  0
    1.7947    3.8439   -3.0297 H   0  0  0  0  0  0  0  0  0  0  0  0
    2.5450    2.6999   -0.4264 H   0  0  0  0  0  0  0  0  0  0  0  0
    4.6393    1.6714   -1.1417 H   0  0  0  0  0  0  0  0  0  0  0  0
    6.2220    4.9052   -0.3729 H   0  0  0  0  0  0  0  0  0  0  0  0
    8.6481    5.3002   -0.5558 H   0  0  0  0  0  0  0  0  0  0  0  0
   11.7156   -0.1347    0.4237 H   0  0  0  0  0  0  0  0  0  0  0  0
   14.9888    0.5462   -2.3032 H   0  0  0  0  0  0  0  0  0  0  0  0
   14.5981    1.8181   -3.3826 H   0  0  0  0  0  0  0  0  0  0  0  0
   12.4050    4.7728   -2.6446 H   0  0  0  0  0  0  0  0  0  0  0  0
   14.6751    5.5897   -6.2542 H   0  0  0  0  0  0  0  0  0  0  0  0
   14.0308    3.9398   -6.4193 H   0  0  0  0  0  0  0  0  0  0  0  0
   15.5243    4.2366   -5.4712 H   0  0  0  0  0  0  0  0  0  0  0  0
    9.1717    1.3308   -2.1513 H   0  0  0  0  0  0  0  0  0  0  0  0
  1  2  1  0  0  0  0
  1 26  1  0  0  0  0
  1 27  1  0  0  0  0
  1 28  1  0  0  0  0
  2  3  1  0  0  0  0
  2 29  1  0  0  0  0
  2 30  1  0  0  0  0
  3  4  1  0  0  0  0
  3 31  1  0  0  0  0
  4  5  2  0  0  0  0
  4  6  1  0  0  0  0
  6  7  1  0  0  0  0
  6 32  1  0  0  0  0
  7  8  1  0  0  0  0
  7 24  2  0  0  0  0
  8  9  2  0  0  0  0
  8 33  1  0  0  0  0
  9 10  1  0  0  0  0
  9 34  1  0  0  0  0
 10 11  1  0  0  0  0
 10 23  2  0  0  0  0
 11 12  1  0  0  0  0
 12 13  1  0  0  0  0
 12 18  2  0  0  0  0
 13 14  2  0  0  0  0
 14 15  1  0  0  0  0
 14 35  1  0  0  0  0
 15 16  2  0  0  0  0
 16 17  1  0  0  0  0
 16 18  1  0  0  0  0
 17 36  1  0  0  0  0
 17 37  1  0  0  0  0
 18 19  1  0  0  0  0
 19 20  2  0  0  0  0
 19 38  1  0  0  0  0
 20 21  1  0  0  0  0
 21 22  1  0  0  0  0
 22 39  1  0  0  0  0
 22 40  1  0  0  0  0
 22 41  1  0  0  0  0
 23 24  1  0  0  0  0
 23 42  1  0  0  0  0
 24 25  1  0  0  0  0
M  END
$$$$
