CHEMBL3297896
 OpenBabel04072215363D

 35 38  0  0  0  0  0  0  0  0999 V2000
    1.1837    0.1560   -0.1233 C   0  0  0  0  0  0  0  0  0  0  0  0
    2.6810    0.1059   -0.1534 C   0  0  0  0  0  0  0  0  0  0  0  0
    3.2334   -1.1222   -0.1689 N   0  0  0  0  0  0  0  0  0  0  0  0
    4.5786   -1.2821   -0.1681 C   0  0  0  0  0  0  0  0  0  0  0  0
    5.1663   -2.5560   -0.1051 N   0  0  0  0  0  0  0  0  0  0  0  0
    4.6174   -3.7595    0.3817 C   0  0  0  0  0  0  0  0  0  0  0  0
    3.2351   -4.0220    0.3782 C   0  0  0  0  0  0  0  0  0  0  0  0
    2.6860   -5.1729    0.9417 C   0  0  0  0  0  0  0  0  0  0  0  0
    3.5009   -6.1408    1.5189 C   0  0  0  0  0  0  0  0  0  0  0  0
    4.8792   -5.9171    1.4867 C   0  0  0  0  0  0  0  0  0  0  0  0
    5.9042   -6.7014    1.9678 N   0  0  0  0  0  0  0  0  0  0  0  0
    7.1105   -6.0996    1.7375 C   0  0  0  0  0  0  0  0  0  0  0  0
    6.8670   -4.9071    1.0969 C   0  0  0  0  0  0  0  0  0  0  0  0
    5.4533   -4.7701    0.9299 C   0  0  0  0  0  0  0  0  0  0  0  0
    5.3543   -0.1168   -0.1794 C   0  0  0  0  0  0  0  0  0  0  0  0
    6.7373    0.2097   -0.1735 C   0  0  0  0  0  0  0  0  0  0  0  0
    6.8105    1.5847   -0.1377 C   0  0  0  0  0  0  0  0  0  0  0  0
    7.9370    2.5373   -0.1017 C   0  0  0  0  0  0  0  0  0  0  0  0
    5.5590    2.1234   -0.1305 O   0  0  0  0  0  0  0  0  0  0  0  0
    4.6685    1.0889   -0.1564 C   0  0  0  0  0  0  0  0  0  0  0  0
    3.3421    1.2705   -0.1426 N   0  0  0  0  0  0  0  0  0  0  0  0
    0.7609   -0.8559   -0.1165 H   0  0  0  0  0  0  0  0  0  0  0  0
    0.8058    0.6784   -1.0055 H   0  0  0  0  0  0  0  0  0  0  0  0
    0.8435    0.6721    0.7784 H   0  0  0  0  0  0  0  0  0  0  0  0
    6.1722   -2.5230   -0.0152 H   0  0  0  0  0  0  0  0  0  0  0  0
    2.5428   -3.3148   -0.0715 H   0  0  0  0  0  0  0  0  0  0  0  0
    1.6066   -5.3046    0.9357 H   0  0  0  0  0  0  0  0  0  0  0  0
    3.0740   -7.0302    1.9693 H   0  0  0  0  0  0  0  0  0  0  0  0
    5.7724   -7.5893    2.4320 H   0  0  0  0  0  0  0  0  0  0  0  0
    8.0342   -6.5703    2.0496 H   0  0  0  0  0  0  0  0  0  0  0  0
    7.6275   -4.2044    0.7853 H   0  0  0  0  0  0  0  0  0  0  0  0
    7.5777   -0.4695   -0.1822 H   0  0  0  0  0  0  0  0  0  0  0  0
    8.8943    2.0064   -0.0915 H   0  0  0  0  0  0  0  0  0  0  0  0
    7.8857    3.1613    0.7957 H   0  0  0  0  0  0  0  0  0  0  0  0
    7.9173    3.1874   -0.9812 H   0  0  0  0  0  0  0  0  0  0  0  0
  1  2  1  0  0  0  0
  1 22  1  0  0  0  0
  1 23  1  0  0  0  0
  1 24  1  0  0  0  0
  2  3  1  0  0  0  0
  2 21  2  0  0  0  0
  3  4  2  0  0  0  0
  4  5  1  0  0  0  0
  4 15  1  0  0  0  0
  5  6  1  0  0  0  0
  5 25  1  0  0  0  0
  6  7  1  0  0  0  0
  6 14  2  0  0  0  0
  7  8  2  0  0  0  0
  7 26  1  0  0  0  0
  8  9  1  0  0  0  0
  8 27  1  0  0  0  0
  9 10  2  0  0  0  0
  9 28  1  0  0  0  0
 10 11  1  0  0  0  0
 10 14  1  0  0  0  0
 11 12  1  0  0  0  0
 11 29  1  0  0  0  0
 12 13  2  0  0  0  0
 12 30  1  0  0  0  0
 13 14  1  0  0  0  0
 13 31  1  0  0  0  0
 15 16  1  0  0  0  0
 15 20  2  0  0  0  0
 16 17  2  0  0  0  0
 16 32  1  0  0  0  0
 17 18  1  0  0  0  0
 17 19  1  0  0  0  0
 18 33  1  0  0  0  0
 18 34  1  0  0  0  0
 18 35  1  0  0  0  0
 19 20  1  0  0  0  0
 20 21  1  0  0  0  0
M  END
$$$$
