CHEMBL3297894
 OpenBabel04072215363D

 31 33  0  0  0  0  0  0  0  0999 V2000
    1.2384    0.2033   -0.0851 C   0  0  0  0  0  0  0  0  0  0  0  0
    2.7363    0.1515   -0.1023 C   0  0  0  0  0  0  0  0  0  0  0  0
    3.2944   -1.0762   -0.1028 N   0  0  0  0  0  0  0  0  0  0  0  0
    4.6430   -1.2187   -0.1205 C   0  0  0  0  0  0  0  0  0  0  0  0
    5.2126   -2.4977   -0.1275 N   0  0  0  0  0  0  0  0  0  0  0  0
    4.6911   -3.6693    0.4493 C   0  0  0  0  0  0  0  0  0  0  0  0
    5.0854   -4.9151   -0.0578 C   0  0  0  0  0  0  0  0  0  0  0  0
    4.5419   -6.0951    0.4554 C   0  0  0  0  0  0  0  0  0  0  0  0
    3.6039   -6.0328    1.4809 C   0  0  0  0  0  0  0  0  0  0  0  0
    3.1010   -7.1781    1.9622 F   0  0  0  0  0  0  0  0  0  0  0  0
    3.2027   -4.8058    1.9971 C   0  0  0  0  0  0  0  0  0  0  0  0
    2.0578   -4.7183    3.2804 Cl  0  0  0  0  0  0  0  0  0  0  0  0
    3.7347   -3.6294    1.4759 C   0  0  0  0  0  0  0  0  0  0  0  0
    5.4135   -0.0548   -0.1417 C   0  0  0  0  0  0  0  0  0  0  0  0
    6.7940    0.2754   -0.1452 C   0  0  0  0  0  0  0  0  0  0  0  0
    6.8615    1.6507   -0.1204 C   0  0  0  0  0  0  0  0  0  0  0  0
    7.9851    2.6070   -0.0921 C   0  0  0  0  0  0  0  0  0  0  0  0
    5.6075    2.1848   -0.1136 O   0  0  0  0  0  0  0  0  0  0  0  0
    4.7216    1.1462   -0.1241 C   0  0  0  0  0  0  0  0  0  0  0  0
    3.3937    1.3195   -0.1079 N   0  0  0  0  0  0  0  0  0  0  0  0
    0.8121   -0.8056   -0.0797 H   0  0  0  0  0  0  0  0  0  0  0  0
    0.8708    0.7265   -0.9723 H   0  0  0  0  0  0  0  0  0  0  0  0
    0.8925    0.7267    0.8106 H   0  0  0  0  0  0  0  0  0  0  0  0
    6.2080   -2.5231   -0.3032 H   0  0  0  0  0  0  0  0  0  0  0  0
    5.7956   -4.9736   -0.8797 H   0  0  0  0  0  0  0  0  0  0  0  0
    4.8322   -7.0605    0.0541 H   0  0  0  0  0  0  0  0  0  0  0  0
    3.4169   -2.6772    1.8887 H   0  0  0  0  0  0  0  0  0  0  0  0
    7.6367   -0.4010   -0.1440 H   0  0  0  0  0  0  0  0  0  0  0  0
    8.9440    2.0784   -0.0873 H   0  0  0  0  0  0  0  0  0  0  0  0
    7.9376    3.2308    0.8055 H   0  0  0  0  0  0  0  0  0  0  0  0
    7.9585    3.2561   -0.9719 H   0  0  0  0  0  0  0  0  0  0  0  0
  1  2  1  0  0  0  0
  1 21  1  0  0  0  0
  1 22  1  0  0  0  0
  1 23  1  0  0  0  0
  2  3  1  0  0  0  0
  2 20  2  0  0  0  0
  3  4  2  0  0  0  0
  4  5  1  0  0  0  0
  4 14  1  0  0  0  0
  5  6  1  0  0  0  0
  5 24  1  0  0  0  0
  6  7  1  0  0  0  0
  6 13  2  0  0  0  0
  7  8  2  0  0  0  0
  7 25  1  0  0  0  0
  8  9  1  0  0  0  0
  8 26  1  0  0  0  0
  9 10  1  0  0  0  0
  9 11  2  0  0  0  0
 11 12  1  0  0  0  0
 11 13  1  0  0  0  0
 13 27  1  0  0  0  0
 14 15  1  0  0  0  0
 14 19  2  0  0  0  0
 15 16  2  0  0  0  0
 15 28  1  0  0  0  0
 16 17  1  0  0  0  0
 16 18  1  0  0  0  0
 17 29  1  0  0  0  0
 17 30  1  0  0  0  0
 17 31  1  0  0  0  0
 18 19  1  0  0  0  0
 19 20  1  0  0  0  0
M  END
$$$$
