CHEMBL565990
 OpenBabel04072215383D

 61 65  0  0  0  0  0  0  0  0999 V2000
    6.7334    2.3144   -0.4953 C   0  0  0  0  0  0  0  0  0  0  0  0
    5.5715    1.4063   -0.8526 C   0  0  0  0  0  0  0  0  0  0  0  0
    5.4444    0.3213    0.0980 N   0  0  0  0  0  0  0  0  0  0  0  0
    4.7074    0.3228    1.2422 C   0  0  0  0  0  0  0  0  0  0  0  0
    4.7458   -0.8448    1.8400 N   0  0  0  0  0  0  0  0  0  0  0  0
    5.5298   -1.6597    1.0449 C   0  0  0  0  0  0  0  0  0  0  0  0
    5.7755   -3.0767    1.3678 C   0  0  0  0  0  0  0  0  0  0  0  0
    6.7919   -3.6913    1.0712 O   0  0  0  0  0  0  0  0  0  0  0  0
    4.6704   -3.6986    2.0153 C   0  0  0  0  0  0  0  0  0  0  0  0
    3.3747   -3.3081    1.8587 C   0  0  0  0  0  0  0  0  0  0  0  0
    2.6804   -4.1178    2.6767 C   0  0  0  0  0  0  0  0  0  0  0  0
    1.4756   -4.1084    2.9755 N   0  0  0  0  0  0  0  0  0  0  0  0
    0.3089   -4.0729    3.2412 C   0  0  0  0  0  0  0  0  0  0  0  0
    0.7726   -5.1139    4.0457 C   0  0  0  0  0  0  0  0  0  0  0  0
    2.3357   -5.8585    4.2339 C   0  0  0  0  0  0  0  0  0  0  0  0
    3.0157   -6.2962    5.4321 O   0  0  0  0  0  0  0  0  0  0  0  0
    2.5368   -6.7862    6.6952 C   0  0  0  0  0  0  0  0  0  0  0  0
    1.1240   -6.9139    6.9384 C   0  0  0  0  0  0  0  0  0  0  0  0
    0.5309   -8.1182    7.4898 C   0  0  0  0  0  0  0  0  0  0  0  0
    1.3367   -9.0700    8.1187 C   0  0  0  0  0  0  0  0  0  0  0  0
    0.8246  -10.3244    8.6902 N   0  0  0  0  0  0  0  0  0  0  0  0
   -0.5217  -10.5141    9.0270 C   0  0  0  0  0  0  0  0  0  0  0  0
   -1.3180   -9.5984    8.8415 O   0  0  0  0  0  0  0  0  0  0  0  0
   -1.0688  -11.8555    9.5799 C   0  0  0  0  0  0  0  0  0  0  0  0
    0.0672  -12.9185    9.6977 C   0  0  0  0  0  0  0  0  0  0  0  0
    1.2379  -12.6002    9.9148 O   0  0  0  0  0  0  0  0  0  0  0  0
   -0.2452  -14.2669    9.4996 N   0  0  0  0  0  0  0  0  0  0  0  0
    0.8231  -15.2215    9.5595 C   0  0  0  0  0  0  0  0  0  0  0  0
    1.5737  -15.3467   10.7379 C   0  0  0  0  0  0  0  0  0  0  0  0
    2.6576  -16.2198   10.8217 C   0  0  0  0  0  0  0  0  0  0  0  0
    3.1304  -16.8279    9.6688 C   0  0  0  0  0  0  0  0  0  0  0  0
    2.4444  -16.6408    8.4692 C   0  0  0  0  0  0  0  0  0  0  0  0
    1.2013  -15.9828    8.4528 C   0  0  0  0  0  0  0  0  0  0  0  0
    2.6925   -8.7020    8.1827 C   0  0  0  0  0  0  0  0  0  0  0  0
    3.2850   -7.6229    7.4827 C   0  0  0  0  0  0  0  0  0  0  0  0
    4.6009   -7.4421    7.6148 F   0  0  0  0  0  0  0  0  0  0  0  0
    3.2452   -5.1486    3.3837 C   0  0  0  0  0  0  0  0  0  0  0  0
    4.9149   -5.0180    3.1102 S   0  0  0  0  0  0  0  0  0  0  0  0
    5.9857   -0.9226   -0.0432 C   0  0  0  0  0  0  0  0  0  0  0  0
    6.8127    3.1380   -1.2102 H   0  0  0  0  0  0  0  0  0  0  0  0
    7.6774    1.7595   -0.5003 H   0  0  0  0  0  0  0  0  0  0  0  0
    6.6032    2.7393    0.5063 H   0  0  0  0  0  0  0  0  0  0  0  0
    5.6964    0.9715   -1.8497 H   0  0  0  0  0  0  0  0  0  0  0  0
    4.6327    1.9731   -0.8472 H   0  0  0  0  0  0  0  0  0  0  0  0
    4.1472    1.1801    1.5883 H   0  0  0  0  0  0  0  0  0  0  0  0
    2.9455   -2.5037    1.2836 H   0  0  0  0  0  0  0  0  0  0  0  0
    0.2010   -3.2260    2.5392 H   0  0  0  0  0  0  0  0  0  0  0  0
   -0.1493   -5.5853    4.4117 H   0  0  0  0  0  0  0  0  0  0  0  0
    0.4506   -6.0451    6.8794 H   0  0  0  0  0  0  0  0  0  0  0  0
   -0.5462   -8.2700    7.3763 H   0  0  0  0  0  0  0  0  0  0  0  0
    1.4954  -11.0604    8.8720 H   0  0  0  0  0  0  0  0  0  0  0  0
   -1.8433  -12.2334    8.9028 H   0  0  0  0  0  0  0  0  0  0  0  0
   -1.4984  -11.6757   10.5726 H   0  0  0  0  0  0  0  0  0  0  0  0
   -1.0878  -14.5180    9.0036 H   0  0  0  0  0  0  0  0  0  0  0  0
    1.3177  -14.7542   11.6125 H   0  0  0  0  0  0  0  0  0  0  0  0
    3.1543  -16.3722   11.7751 H   0  0  0  0  0  0  0  0  0  0  0  0
    4.0297  -17.4380    9.7070 H   0  0  0  0  0  0  0  0  0  0  0  0
    2.8969  -16.9911    7.5431 H   0  0  0  0  0  0  0  0  0  0  0  0
    0.6113  -16.0178    7.5444 H   0  0  0  0  0  0  0  0  0  0  0  0
    3.4167   -9.2778    8.7300 H   0  0  0  0  0  0  0  0  0  0  0  0
    6.6103   -1.1695   -0.8930 H   0  0  0  0  0  0  0  0  0  0  0  0
  1  2  1  0  0  0  0
  1 40  1  0  0  0  0
  1 41  1  0  0  0  0
  1 42  1  0  0  0  0
  2  3  1  0  0  0  0
  2 43  1  0  0  0  0
  2 44  1  0  0  0  0
  3  4  1  0  0  0  0
  3 39  1  0  0  0  0
  4  5  2  0  0  0  0
  4 45  1  0  0  0  0
  5  6  1  0  0  0  0
  6  7  1  0  0  0  0
  6 39  2  0  0  0  0
  7  8  2  0  0  0  0
  7  9  1  0  0  0  0
  9 10  2  0  0  0  0
  9 38  1  0  0  0  0
 10 11  1  0  0  0  0
 10 46  1  0  0  0  0
 11 12  1  0  0  0  0
 11 37  2  0  0  0  0
 12 13  2  0  0  0  0
 13 14  1  0  0  0  0
 13 47  1  0  0  0  0
 14 15  2  0  0  0  0
 14 48  1  0  0  0  0
 15 16  1  0  0  0  0
 15 37  1  0  0  0  0
 16 17  1  0  0  0  0
 17 18  1  0  0  0  0
 17 35  2  0  0  0  0
 18 19  2  0  0  0  0
 18 49  1  0  0  0  0
 19 20  1  0  0  0  0
 19 50  1  0  0  0  0
 20 21  1  0  0  0  0
 20 34  2  0  0  0  0
 21 22  1  0  0  0  0
 21 51  1  0  0  0  0
 22 23  2  0  0  0  0
 22 24  1  0  0  0  0
 24 25  1  0  0  0  0
 24 52  1  0  0  0  0
 24 53  1  0  0  0  0
 25 26  2  0  0  0  0
 25 27  1  0  0  0  0
 27 28  1  0  0  0  0
 27 54  1  0  0  0  0
 28 29  1  0  0  0  0
 28 33  2  0  0  0  0
 29 30  2  0  0  0  0
 29 55  1  0  0  0  0
 30 31  1  0  0  0  0
 30 56  1  0  0  0  0
 31 32  2  0  0  0  0
 31 57  1  0  0  0  0
 32 33  1  0  0  0  0
 32 58  1  0  0  0  0
 33 59  1  0  0  0  0
 34 35  1  0  0  0  0
 34 60  1  0  0  0  0
 35 36  1  0  0  0  0
 37 38  1  0  0  0  0
 39 61  1  0  0  0  0
M  END
$$$$
