CHEMBL3397917
 OpenBabel04072215363D

 64 67  0  0  0  0  0  0  0  0999 V2000
    1.4034   -0.1984   -0.3750 C   0  0  0  0  0  0  0  0  0  0  0  0
    2.4363    0.0968    0.5529 O   0  0  0  0  0  0  0  0  0  0  0  0
    3.0872    1.2982    0.4348 C   0  0  0  0  0  0  0  0  0  0  0  0
    2.7495    2.2959   -0.4731 C   0  0  0  0  0  0  0  0  0  0  0  0
    3.5072    3.4644   -0.5321 C   0  0  0  0  0  0  0  0  0  0  0  0
    4.6252    3.6418    0.3063 C   0  0  0  0  0  0  0  0  0  0  0  0
    5.4702    4.8273   -0.0033 C   0  0  0  0  0  0  0  0  0  0  0  0
    6.6572    4.6429   -0.2443 O   0  0  0  0  0  0  0  0  0  0  0  0
    4.8258    6.0610    0.0422 N   0  0  0  0  0  0  0  0  0  0  0  0
    5.5006    7.2925   -0.1307 C   0  0  0  0  0  0  0  0  0  0  0  0
    6.6125    7.4235   -0.9648 C   0  0  0  0  0  0  0  0  0  0  0  0
    7.3214    8.6293   -1.0321 C   0  0  0  0  0  0  0  0  0  0  0  0
    6.9306    9.7209   -0.2582 C   0  0  0  0  0  0  0  0  0  0  0  0
    7.6059   10.9144   -0.1894 O   0  0  0  0  0  0  0  0  0  0  0  0
    8.2716   11.2911   -1.4034 C   0  0  0  0  0  0  0  0  0  0  0  0
    8.9281   12.6757   -1.2434 C   0  0  0  0  0  0  0  0  0  0  0  0
    9.6456   13.1315   -2.4557 N   0  0  0  0  0  0  0  0  0  0  0  0
    8.7331   13.3418   -3.5908 C   0  0  0  0  0  0  0  0  0  0  0  0
    9.4896   13.7694   -4.8503 C   0  0  0  0  0  0  0  0  0  0  0  0
   10.3176   15.0212   -4.6017 C   0  0  0  0  0  0  0  0  0  0  0  0
   11.2138   14.8214   -3.3831 C   0  0  0  0  0  0  0  0  0  0  0  0
   10.4110   14.3575   -2.1631 C   0  0  0  0  0  0  0  0  0  0  0  0
    5.8028    9.6017    0.5565 C   0  0  0  0  0  0  0  0  0  0  0  0
    5.0670    8.4066    0.5921 C   0  0  0  0  0  0  0  0  0  0  0  0
    4.9923    2.6659    1.2752 C   0  0  0  0  0  0  0  0  0  0  0  0
    6.1644    2.8276    2.1964 C   0  0  0  0  0  0  0  0  0  0  0  0
    6.4461    4.0480    2.8411 C   0  0  0  0  0  0  0  0  0  0  0  0
    7.5479    4.1955    3.6957 C   0  0  0  0  0  0  0  0  0  0  0  0
    8.3619    3.1058    3.9873 C   0  0  0  0  0  0  0  0  0  0  0  0
    8.0817    1.8848    3.3935 C   0  0  0  0  0  0  0  0  0  0  0  0
    8.8111    0.7699    3.6874 O   0  0  0  0  0  0  0  0  0  0  0  0
    7.0328    1.7536    2.4825 C   0  0  0  0  0  0  0  0  0  0  0  0
    4.1693    1.5063    1.3196 C   0  0  0  0  0  0  0  0  0  0  0  0
    4.3644    0.5029    2.2475 O   0  0  0  0  0  0  0  0  0  0  0  0
    1.0716   -1.2250   -0.1903 H   0  0  0  0  0  0  0  0  0  0  0  0
    1.7601   -0.1486   -1.4094 H   0  0  0  0  0  0  0  0  0  0  0  0
    0.5460    0.4634   -0.2190 H   0  0  0  0  0  0  0  0  0  0  0  0
    1.9185    2.1866   -1.1617 H   0  0  0  0  0  0  0  0  0  0  0  0
    3.2580    4.2130   -1.2818 H   0  0  0  0  0  0  0  0  0  0  0  0
    3.9053    6.0945    0.4629 H   0  0  0  0  0  0  0  0  0  0  0  0
    6.9538    6.5915   -1.5759 H   0  0  0  0  0  0  0  0  0  0  0  0
    8.1978    8.6587   -1.6703 H   0  0  0  0  0  0  0  0  0  0  0  0
    7.5217   11.3147   -2.2007 H   0  0  0  0  0  0  0  0  0  0  0  0
    9.0618   10.5742   -1.6517 H   0  0  0  0  0  0  0  0  0  0  0  0
    9.6416   12.5977   -0.4107 H   0  0  0  0  0  0  0  0  0  0  0  0
    8.1782   13.4111   -0.9238 H   0  0  0  0  0  0  0  0  0  0  0  0
    7.9710   14.0923   -3.3430 H   0  0  0  0  0  0  0  0  0  0  0  0
    8.2118   12.4141   -3.8438 H   0  0  0  0  0  0  0  0  0  0  0  0
    8.7782   13.9497   -5.6641 H   0  0  0  0  0  0  0  0  0  0  0  0
   10.1478   12.9537   -5.1781 H   0  0  0  0  0  0  0  0  0  0  0  0
    9.6502   15.8745   -4.4332 H   0  0  0  0  0  0  0  0  0  0  0  0
   10.9225   15.2532   -5.4851 H   0  0  0  0  0  0  0  0  0  0  0  0
   11.7294   15.7624   -3.1538 H   0  0  0  0  0  0  0  0  0  0  0  0
   11.9893   14.0834   -3.6206 H   0  0  0  0  0  0  0  0  0  0  0  0
    9.7406   15.1649   -1.8400 H   0  0  0  0  0  0  0  0  0  0  0  0
   11.1171   14.1699   -1.3529 H   0  0  0  0  0  0  0  0  0  0  0  0
    5.5016   10.4393    1.1810 H   0  0  0  0  0  0  0  0  0  0  0  0
    4.2044    8.3446    1.2489 H   0  0  0  0  0  0  0  0  0  0  0  0
    5.8240    4.9232    2.6725 H   0  0  0  0  0  0  0  0  0  0  0  0
    7.7682    5.1682    4.1287 H   0  0  0  0  0  0  0  0  0  0  0  0
    9.2029    3.2295    4.6616 H   0  0  0  0  0  0  0  0  0  0  0  0
    9.4634    0.9961    4.3710 H   0  0  0  0  0  0  0  0  0  0  0  0
    6.8950    0.7849    2.0038 H   0  0  0  0  0  0  0  0  0  0  0  0
    4.8636    0.8506    3.0028 H   0  0  0  0  0  0  0  0  0  0  0  0
  1  2  1  0  0  0  0
  1 35  1  0  0  0  0
  1 36  1  0  0  0  0
  1 37  1  0  0  0  0
  2  3  1  0  0  0  0
  3  4  1  0  0  0  0
  3 33  2  0  0  0  0
  4  5  2  0  0  0  0
  4 38  1  0  0  0  0
  5  6  1  0  0  0  0
  5 39  1  0  0  0  0
  6  7  1  0  0  0  0
  6 25  2  0  0  0  0
  7  8  2  0  0  0  0
  7  9  1  0  0  0  0
  9 10  1  0  0  0  0
  9 40  1  0  0  0  0
 10 11  1  0  0  0  0
 10 24  2  0  0  0  0
 11 12  2  0  0  0  0
 11 41  1  0  0  0  0
 12 13  1  0  0  0  0
 12 42  1  0  0  0  0
 13 14  1  0  0  0  0
 13 23  2  0  0  0  0
 14 15  1  0  0  0  0
 15 16  1  0  0  0  0
 15 43  1  0  0  0  0
 15 44  1  0  0  0  0
 16 17  1  0  0  0  0
 16 45  1  0  0  0  0
 16 46  1  0  0  0  0
 17 18  1  0  0  0  0
 17 22  1  0  0  0  0
 18 19  1  0  0  0  0
 18 47  1  0  0  0  0
 18 48  1  0  0  0  0
 19 20  1  0  0  0  0
 19 49  1  0  0  0  0
 19 50  1  0  0  0  0
 20 21  1  0  0  0  0
 20 51  1  0  0  0  0
 20 52  1  0  0  0  0
 21 22  1  0  0  0  0
 21 53  1  0  0  0  0
 21 54  1  0  0  0  0
 22 55  1  0  0  0  0
 22 56  1  0  0  0  0
 23 24  1  0  0  0  0
 23 57  1  0  0  0  0
 24 58  1  0  0  0  0
 25 26  1  0  0  0  0
 25 33  1  0  0  0  0
 26 27  1  0  0  0  0
 26 32  2  0  0  0  0
 27 28  2  0  0  0  0
 27 59  1  0  0  0  0
 28 29  1  0  0  0  0
 28 60  1  0  0  0  0
 29 30  2  0  0  0  0
 29 61  1  0  0  0  0
 30 31  1  0  0  0  0
 30 32  1  0  0  0  0
 31 62  1  0  0  0  0
 32 63  1  0  0  0  0
 33 34  1  0  0  0  0
 34 64  1  0  0  0  0
M  END
$$$$
