CHEMBL3422070
 OpenBabel04072215363D

 73 78  0  0  1  0  0  0  0  0999 V2000
    0.7621    2.2220    1.2286 C   0  0  0  0  0  0  0  0  0  0  0  0
    2.1321    2.0646    0.7350 N   0  0  0  0  0  0  0  0  0  0  0  0
    2.4315    0.6390    0.5424 C   0  0  0  0  0  0  0  0  0  0  0  0
    3.8647    0.4538    0.0398 C   0  0  0  0  0  0  0  0  0  0  0  0
    4.0536    1.1681   -1.3003 C   0  0  0  0  0  0  0  0  0  0  0  0
    3.1625    0.6548   -2.2923 O   0  0  0  0  0  0  0  0  0  0  0  0
    3.3570   -0.6108   -2.7588 C   0  0  0  0  0  0  0  0  0  0  0  0
    2.1986   -1.2246   -3.2166 C   0  0  0  0  0  0  0  0  0  0  0  0
    2.2777   -2.4819   -3.7922 C   0  0  0  0  0  0  0  0  0  0  0  0
    3.5167   -3.1277   -4.0001 C   0  0  0  0  0  0  0  0  0  0  0  0
    3.4530   -4.3225   -4.8407 C   0  0  0  0  0  0  0  0  0  0  0  0
    2.6599   -4.2481   -5.9234 N   0  0  0  0  0  0  0  0  0  0  0  0
    2.2180   -5.4815   -6.0951 N   0  0  0  0  0  0  0  0  0  0  0  0
    2.7691   -6.3783   -5.2127 C   0  0  0  0  0  0  0  0  0  0  0  0
    2.4265   -7.6920   -4.9138 C   0  0  0  0  0  0  0  0  0  0  0  0
    3.2796   -8.3917   -4.0537 C   0  0  0  0  0  0  0  0  0  0  0  0
    4.4681   -7.8107   -3.6023 C   0  0  0  0  0  0  0  0  0  0  0  0
    5.4098   -8.6577   -2.9559 N   0  0  0  0  0  0  0  0  0  0  0  0
    6.7038   -8.7759   -3.4679 C   0  0  0  0  0  0  0  0  0  0  0  0
    7.1344   -8.0791   -4.3888 O   0  0  0  0  0  0  0  0  0  0  0  0
    7.5418   -9.9357   -2.8811 C   0  0  3  0  0  0  0  0  0  0  0  0
    7.2434  -11.2569   -3.5943 C   0  0  0  0  0  0  0  0  0  0  0  0
    6.9009  -11.3115   -4.9474 C   0  0  0  0  0  0  0  0  0  0  0  0
    6.7294  -12.5489   -5.5683 C   0  0  0  0  0  0  0  0  0  0  0  0
    6.9192  -13.7125   -4.8381 C   0  0  0  0  0  0  0  0  0  0  0  0
    7.2487  -13.5846   -3.4992 C   0  0  0  0  0  0  0  0  0  0  0  0
    7.3977  -12.3963   -2.8644 N   0  0  0  0  0  0  0  0  0  0  0  0
    9.0566   -9.5963   -2.9836 C   0  0  0  0  0  0  0  0  0  0  0  0
   10.0086  -10.6087   -2.3297 C   0  0  0  0  0  0  0  0  0  0  0  0
   11.3235   -9.8520   -2.1250 C   0  0  0  0  0  0  0  0  0  0  0  0
   10.9808   -8.3682   -2.2132 C   0  0  0  0  0  0  0  0  0  0  0  0
    9.4594   -8.3014   -2.2634 C   0  0  0  0  0  0  0  0  0  0  0  0
    4.7159   -6.4384   -3.8034 C   0  0  0  0  0  0  0  0  0  0  0  0
    3.8045   -5.6863   -4.5788 C   0  0  0  0  0  0  0  0  0  0  0  0
    4.6677   -2.5438   -3.4818 C   0  0  0  0  0  0  0  0  0  0  0  0
    4.5829   -1.2806   -2.8584 C   0  0  0  0  0  0  0  0  0  0  0  0
    3.7122    2.6479   -1.1027 C   0  0  0  0  0  0  0  0  0  0  0  0
    2.3102    2.8270   -0.5112 C   0  0  0  0  0  0  0  0  0  0  0  0
    0.6177    1.6586    2.1580 H   0  0  0  0  0  0  0  0  0  0  0  0
    0.0175    1.8777    0.5011 H   0  0  0  0  0  0  0  0  0  0  0  0
    0.5559    3.2730    1.4626 H   0  0  0  0  0  0  0  0  0  0  0  0
    1.7211    0.1770   -0.1520 H   0  0  0  0  0  0  0  0  0  0  0  0
    2.3372    0.1097    1.4971 H   0  0  0  0  0  0  0  0  0  0  0  0
    4.0756   -0.6171   -0.0491 H   0  0  0  0  0  0  0  0  0  0  0  0
    4.5717    0.8602    0.7742 H   0  0  0  0  0  0  0  0  0  0  0  0
    5.0923    1.1052   -1.6486 H   0  0  0  0  0  0  0  0  0  0  0  0
    1.2390   -0.7235   -3.1617 H   0  0  0  0  0  0  0  0  0  0  0  0
    1.3608   -2.9487   -4.1514 H   0  0  0  0  0  0  0  0  0  0  0  0
    1.4999   -5.6440   -6.7782 H   0  0  0  0  0  0  0  0  0  0  0  0
    1.5283   -8.1554   -5.3250 H   0  0  0  0  0  0  0  0  0  0  0  0
    3.0401   -9.4234   -3.8232 H   0  0  0  0  0  0  0  0  0  0  0  0
    5.0397   -9.5062   -2.5407 H   0  0  0  0  0  0  0  0  0  0  0  0
    7.2666  -10.0469   -1.8230 H   0  0  0  0  0  0  0  0  0  0  0  0
    6.7819  -10.4088   -5.5397 H   0  0  0  0  0  0  0  0  0  0  0  0
    6.4696  -12.5983   -6.6227 H   0  0  0  0  0  0  0  0  0  0  0  0
    6.8218  -14.6873   -5.3010 H   0  0  0  0  0  0  0  0  0  0  0  0
    7.4166  -14.4674   -2.8875 H   0  0  0  0  0  0  0  0  0  0  0  0
    9.3362   -9.5036   -4.0431 H   0  0  0  0  0  0  0  0  0  0  0  0
   10.1625  -11.4977   -2.9489 H   0  0  0  0  0  0  0  0  0  0  0  0
    9.6240  -10.9367   -1.3567 H   0  0  0  0  0  0  0  0  0  0  0  0
   12.0541  -10.1158   -2.8984 H   0  0  0  0  0  0  0  0  0  0  0  0
   11.7722  -10.1020   -1.1576 H   0  0  0  0  0  0  0  0  0  0  0  0
   11.4080   -7.9457   -3.1312 H   0  0  0  0  0  0  0  0  0  0  0  0
   11.3899   -7.7992   -1.3720 H   0  0  0  0  0  0  0  0  0  0  0  0
    9.1245   -7.4005   -2.7855 H   0  0  0  0  0  0  0  0  0  0  0  0
    9.0530   -8.2763   -1.2450 H   0  0  0  0  0  0  0  0  0  0  0  0
    5.5982   -5.9661   -3.3924 H   0  0  0  0  0  0  0  0  0  0  0  0
    5.6402   -3.0155   -3.5996 H   0  0  0  0  0  0  0  0  0  0  0  0
    5.4985   -0.8169   -2.5092 H   0  0  0  0  0  0  0  0  0  0  0  0
    3.7581    3.1745   -2.0639 H   0  0  0  0  0  0  0  0  0  0  0  0
    4.4536    3.1094   -0.4384 H   0  0  0  0  0  0  0  0  0  0  0  0
    1.5570    2.5402   -1.2571 H   0  0  0  0  0  0  0  0  0  0  0  0
    2.1647    3.8954   -0.3049 H   0  0  0  0  0  0  0  0  0  0  0  0
  1  2  1  0  0  0  0
  1 39  1  0  0  0  0
  1 40  1  0  0  0  0
  1 41  1  0  0  0  0
  2  3  1  0  0  0  0
  2 38  1  0  0  0  0
  3  4  1  0  0  0  0
  3 42  1  0  0  0  0
  3 43  1  0  0  0  0
  4  5  1  0  0  0  0
  4 44  1  0  0  0  0
  4 45  1  0  0  0  0
  5  6  1  0  0  0  0
  5 37  1  0  0  0  0
  5 46  1  0  0  0  0
  6  7  1  0  0  0  0
  7  8  1  0  0  0  0
  7 36  2  0  0  0  0
  8  9  2  0  0  0  0
  8 47  1  0  0  0  0
  9 10  1  0  0  0  0
  9 48  1  0  0  0  0
 10 11  1  0  0  0  0
 10 35  2  0  0  0  0
 11 12  2  0  0  0  0
 11 34  1  0  0  0  0
 12 13  1  0  0  0  0
 13 14  1  0  0  0  0
 13 49  1  0  0  0  0
 14 15  1  0  0  0  0
 14 34  2  0  0  0  0
 15 16  2  0  0  0  0
 15 50  1  0  0  0  0
 16 17  1  0  0  0  0
 16 51  1  0  0  0  0
 17 18  1  0  0  0  0
 17 33  2  0  0  0  0
 18 19  1  0  0  0  0
 18 52  1  0  0  0  0
 19 20  2  0  0  0  0
 19 21  1  0  0  0  0
 21 22  1  0  0  0  0
 21 28  1  0  0  0  0
 21 53  1  0  0  0  0
 22 23  1  0  0  0  0
 22 27  2  0  0  0  0
 23 24  2  0  0  0  0
 23 54  1  0  0  0  0
 24 25  1  0  0  0  0
 24 55  1  0  0  0  0
 25 26  2  0  0  0  0
 25 56  1  0  0  0  0
 26 27  1  0  0  0  0
 26 57  1  0  0  0  0
 28 29  1  0  0  0  0
 28 32  1  0  0  0  0
 28 58  1  0  0  0  0
 29 30  1  0  0  0  0
 29 59  1  0  0  0  0
 29 60  1  0  0  0  0
 30 31  1  0  0  0  0
 30 61  1  0  0  0  0
 30 62  1  0  0  0  0
 31 32  1  0  0  0  0
 31 63  1  0  0  0  0
 31 64  1  0  0  0  0
 32 65  1  0  0  0  0
 32 66  1  0  0  0  0
 33 34  1  0  0  0  0
 33 67  1  0  0  0  0
 35 36  1  0  0  0  0
 35 68  1  0  0  0  0
 36 69  1  0  0  0  0
 37 38  1  0  0  0  0
 37 70  1  0  0  0  0
 37 71  1  0  0  0  0
 38 72  1  0  0  0  0
 38 73  1  0  0  0  0
M  END
$$$$
