CHEMBL3946018
 OpenBabel04072215373D

 51 55  0  0  0  0  0  0  0  0999 V2000
    2.6035   -1.1074   -0.6174 C   0  0  0  0  0  0  0  0  0  0  0  0
    2.4751    0.0722    0.1806 O   0  0  0  0  0  0  0  0  0  0  0  0
    3.1893    1.1549   -0.2683 C   0  0  0  0  0  0  0  0  0  0  0  0
    4.3445    1.0198   -1.0374 C   0  0  0  0  0  0  0  0  0  0  0  0
    4.9602    2.1464   -1.6242 C   0  0  0  0  0  0  0  0  0  0  0  0
    6.0214    2.0935   -2.5382 C   0  0  0  0  0  0  0  0  0  0  0  0
    6.5655    0.8268   -2.8955 N   0  0  0  0  0  0  0  0  0  0  0  0
    7.7419    0.5880   -3.6355 C   0  0  0  0  0  0  0  0  0  0  0  0
    8.8139    1.4882   -3.6421 C   0  0  0  0  0  0  0  0  0  0  0  0
    9.9601    1.2448   -4.3943 C   0  0  0  0  0  0  0  0  0  0  0  0
   10.0834    0.0633   -5.1139 C   0  0  0  0  0  0  0  0  0  0  0  0
   11.5146   -0.1593   -6.0520 Cl  0  0  0  0  0  0  0  0  0  0  0  0
    9.0627   -0.8894   -5.0518 C   0  0  0  0  0  0  0  0  0  0  0  0
    9.1648   -2.4060   -5.8740 Cl  0  0  0  0  0  0  0  0  0  0  0  0
    7.9039   -0.6324   -4.3075 C   0  0  0  0  0  0  0  0  0  0  0  0
    6.5263    3.2114   -3.0920 N   0  0  0  0  0  0  0  0  0  0  0  0
    5.9999    4.3767   -2.7174 C   0  0  0  0  0  0  0  0  0  0  0  0
    5.0120    4.5382   -1.8416 N   0  0  0  0  0  0  0  0  0  0  0  0
    4.4938    3.4275   -1.3175 C   0  0  0  0  0  0  0  0  0  0  0  0
    3.4279    3.5525   -0.4489 C   0  0  0  0  0  0  0  0  0  0  0  0
    2.7308    2.4419    0.0431 C   0  0  0  0  0  0  0  0  0  0  0  0
    1.5918    2.5512    0.8044 O   0  0  0  0  0  0  0  0  0  0  0  0
    0.9563    3.8396    0.7685 C   0  0  0  0  0  0  0  0  0  0  0  0
   -0.4191    3.8050    1.3191 C   0  0  0  0  0  0  0  0  0  0  0  0
   -1.4921    3.5810    0.5479 N   0  0  0  0  0  0  0  0  0  0  0  0
   -2.5479    3.6453    1.4546 O   0  0  0  0  0  0  0  0  0  0  0  0
   -2.0002    3.9183    2.6776 C   0  0  0  0  0  0  0  0  0  0  0  0
   -2.9080    3.9582    3.8126 C   0  0  0  0  0  0  0  0  0  0  0  0
   -4.2747    3.6784    3.6693 C   0  0  0  0  0  0  0  0  0  0  0  0
   -5.1149    3.6559    4.7831 C   0  0  0  0  0  0  0  0  0  0  0  0
   -4.5996    3.9198    6.0502 C   0  0  0  0  0  0  0  0  0  0  0  0
   -3.2479    4.2187    6.2063 C   0  0  0  0  0  0  0  0  0  0  0  0
   -2.4065    4.2388    5.0930 C   0  0  0  0  0  0  0  0  0  0  0  0
   -0.6942    4.0634    2.6384 N   0  0  0  0  0  0  0  0  0  0  0  0
    1.7816   -1.7862   -0.3747 H   0  0  0  0  0  0  0  0  0  0  0  0
    3.5427   -1.6246   -0.3914 H   0  0  0  0  0  0  0  0  0  0  0  0
    2.5386   -0.8823   -1.6897 H   0  0  0  0  0  0  0  0  0  0  0  0
    4.7681    0.0379   -1.2145 H   0  0  0  0  0  0  0  0  0  0  0  0
    5.8136    0.2015   -3.1676 H   0  0  0  0  0  0  0  0  0  0  0  0
    8.7631    2.4094   -3.0671 H   0  0  0  0  0  0  0  0  0  0  0  0
   10.7472    1.9982   -4.4089 H   0  0  0  0  0  0  0  0  0  0  0  0
    7.1215   -1.3849   -4.2662 H   0  0  0  0  0  0  0  0  0  0  0  0
    6.4107    5.2719   -3.1688 H   0  0  0  0  0  0  0  0  0  0  0  0
    3.1328    4.5693   -0.2010 H   0  0  0  0  0  0  0  0  0  0  0  0
    0.8923    4.2035   -0.2661 H   0  0  0  0  0  0  0  0  0  0  0  0
    1.5482    4.5480    1.3622 H   0  0  0  0  0  0  0  0  0  0  0  0
   -4.6984    3.4579    2.6910 H   0  0  0  0  0  0  0  0  0  0  0  0
   -6.1689    3.4209    4.6608 H   0  0  0  0  0  0  0  0  0  0  0  0
   -5.2527    3.8877    6.9181 H   0  0  0  0  0  0  0  0  0  0  0  0
   -2.8450    4.4234    7.1951 H   0  0  0  0  0  0  0  0  0  0  0  0
   -1.3489    4.4607    5.2298 H   0  0  0  0  0  0  0  0  0  0  0  0
  1  2  1  0  0  0  0
  1 35  1  0  0  0  0
  1 36  1  0  0  0  0
  1 37  1  0  0  0  0
  2  3  1  0  0  0  0
  3  4  1  0  0  0  0
  3 21  2  0  0  0  0
  4  5  2  0  0  0  0
  4 38  1  0  0  0  0
  5  6  1  0  0  0  0
  5 19  1  0  0  0  0
  6  7  1  0  0  0  0
  6 16  2  0  0  0  0
  7  8  1  0  0  0  0
  7 39  1  0  0  0  0
  8  9  1  0  0  0  0
  8 15  2  0  0  0  0
  9 10  2  0  0  0  0
  9 40  1  0  0  0  0
 10 11  1  0  0  0  0
 10 41  1  0  0  0  0
 11 12  1  0  0  0  0
 11 13  2  0  0  0  0
 13 14  1  0  0  0  0
 13 15  1  0  0  0  0
 15 42  1  0  0  0  0
 16 17  1  0  0  0  0
 17 18  2  0  0  0  0
 17 43  1  0  0  0  0
 18 19  1  0  0  0  0
 19 20  2  0  0  0  0
 20 21  1  0  0  0  0
 20 44  1  0  0  0  0
 21 22  1  0  0  0  0
 22 23  1  0  0  0  0
 23 24  1  0  0  0  0
 23 45  1  0  0  0  0
 23 46  1  0  0  0  0
 24 25  2  0  0  0  0
 24 34  1  0  0  0  0
 25 26  1  0  0  0  0
 26 27  1  0  0  0  0
 27 28  1  0  0  0  0
 27 34  2  0  0  0  0
 28 29  1  0  0  0  0
 28 33  2  0  0  0  0
 29 30  2  0  0  0  0
 29 47  1  0  0  0  0
 30 31  1  0  0  0  0
 30 48  1  0  0  0  0
 31 32  2  0  0  0  0
 31 49  1  0  0  0  0
 32 33  1  0  0  0  0
 32 50  1  0  0  0  0
 33 51  1  0  0  0  0
M  END
$$$$
