CHEMBL3951156
 OpenBabel04072215373D

 59 62  0  0  0  0  0  0  0  0999 V2000
    0.1901    2.6989   -3.2398 C   0  0  0  0  0  0  0  0  0  0  0  0
    1.4833    2.4996   -3.8154 O   0  0  0  0  0  0  0  0  0  0  0  0
    2.4784    2.0713   -2.9704 C   0  0  0  0  0  0  0  0  0  0  0  0
    2.3208    1.9026   -1.5947 C   0  0  0  0  0  0  0  0  0  0  0  0
    3.3775    1.4245   -0.8275 C   0  0  0  0  0  0  0  0  0  0  0  0
    3.3416    1.1926    0.5220 O   0  0  0  0  0  0  0  0  0  0  0  0
    2.1278    1.4998    1.1965 C   0  0  0  0  0  0  0  0  0  0  0  0
    4.5944    1.1093   -1.4438 C   0  0  0  0  0  0  0  0  0  0  0  0
    4.7930    1.2474   -2.8255 C   0  0  0  0  0  0  0  0  0  0  0  0
    5.9365    0.7485   -3.4917 N   0  0  0  0  0  0  0  0  0  0  0  0
    6.6100   -0.4548   -2.8511 C   0  0  0  0  0  0  0  0  0  0  0  0
    5.8566   -1.8301   -2.7821 C   0  0  0  0  0  0  0  0  0  0  0  0
    5.5490   -2.4481   -4.1536 C   0  0  0  0  0  0  0  0  0  0  0  0
    6.7864   -2.7861   -2.0007 C   0  0  0  0  0  0  0  0  0  0  0  0
    4.6513   -1.8062   -2.0154 O   0  0  0  0  0  0  0  0  0  0  0  0
    7.0100    1.5275   -4.1022 C   0  0  0  0  0  0  0  0  0  0  0  0
    7.6202    0.9027   -5.1921 C   0  0  0  0  0  0  0  0  0  0  0  0
    8.9539    1.1059   -5.4463 C   0  0  0  0  0  0  0  0  0  0  0  0
    9.6649    2.0454   -4.7549 C   0  0  0  0  0  0  0  0  0  0  0  0
   10.9943    1.9831   -4.9274 N   0  0  0  0  0  0  0  0  0  0  0  0
   11.7244    3.0013   -4.4652 C   0  0  0  0  0  0  0  0  0  0  0  0
   11.1221    4.1325   -3.9528 C   0  0  0  0  0  0  0  0  0  0  0  0
   11.9314    5.3539   -4.0380 C   0  0  0  0  0  0  0  0  0  0  0  0
   11.8883    6.3756   -5.0253 C   0  0  0  0  0  0  0  0  0  0  0  0
   12.9334    7.2098   -4.9641 N   0  0  0  0  0  0  0  0  0  0  0  0
   13.6562    6.7279   -3.9402 N   0  0  0  0  0  0  0  0  0  0  0  0
   14.7237    7.5139   -3.3666 C   0  0  0  0  0  0  0  0  0  0  0  0
   13.1868    5.5291   -3.4725 C   0  0  0  0  0  0  0  0  0  0  0  0
    9.7809    4.1478   -3.6406 N   0  0  0  0  0  0  0  0  0  0  0  0
    9.0176    3.0283   -3.9559 C   0  0  0  0  0  0  0  0  0  0  0  0
    7.6682    2.6819   -3.5804 C   0  0  0  0  0  0  0  0  0  0  0  0
    3.7157    1.7634   -3.5728 C   0  0  0  0  0  0  0  0  0  0  0  0
   -0.5018    2.9889   -4.0366 H   0  0  0  0  0  0  0  0  0  0  0  0
    0.2047    3.5120   -2.5050 H   0  0  0  0  0  0  0  0  0  0  0  0
   -0.1953    1.7752   -2.7918 H   0  0  0  0  0  0  0  0  0  0  0  0
    1.3758    2.1319   -1.1216 H   0  0  0  0  0  0  0  0  0  0  0  0
    2.2671    1.2762    2.2580 H   0  0  0  0  0  0  0  0  0  0  0  0
    1.3024    0.8789    0.8311 H   0  0  0  0  0  0  0  0  0  0  0  0
    1.8896    2.5651    1.1086 H   0  0  0  0  0  0  0  0  0  0  0  0
    5.3744    0.7017   -0.8087 H   0  0  0  0  0  0  0  0  0  0  0  0
    6.9729   -0.1680   -1.8569 H   0  0  0  0  0  0  0  0  0  0  0  0
    7.5254   -0.7025   -3.4070 H   0  0  0  0  0  0  0  0  0  0  0  0
    6.3750   -2.3294   -4.8602 H   0  0  0  0  0  0  0  0  0  0  0  0
    4.6388   -2.0276   -4.5938 H   0  0  0  0  0  0  0  0  0  0  0  0
    5.3559   -3.5259   -4.0550 H   0  0  0  0  0  0  0  0  0  0  0  0
    7.8189   -2.7456   -2.3640 H   0  0  0  0  0  0  0  0  0  0  0  0
    6.4465   -3.8258   -2.0651 H   0  0  0  0  0  0  0  0  0  0  0  0
    6.7855   -2.5322   -0.9334 H   0  0  0  0  0  0  0  0  0  0  0  0
    3.9197   -1.5400   -2.5995 H   0  0  0  0  0  0  0  0  0  0  0  0
    7.1006    0.1002   -5.7161 H   0  0  0  0  0  0  0  0  0  0  0  0
    9.4759    0.4643   -6.1410 H   0  0  0  0  0  0  0  0  0  0  0  0
   12.7948    2.9203   -4.6118 H   0  0  0  0  0  0  0  0  0  0  0  0
   11.1630    6.5199   -5.8167 H   0  0  0  0  0  0  0  0  0  0  0  0
   14.8004    8.4735   -3.8861 H   0  0  0  0  0  0  0  0  0  0  0  0
   15.6655    6.9660   -3.4424 H   0  0  0  0  0  0  0  0  0  0  0  0
   14.4665    7.6894   -2.3186 H   0  0  0  0  0  0  0  0  0  0  0  0
   13.7664    4.9383   -2.7775 H   0  0  0  0  0  0  0  0  0  0  0  0
    7.1847    3.2741   -2.8053 H   0  0  0  0  0  0  0  0  0  0  0  0
    3.8079    1.8640   -4.6523 H   0  0  0  0  0  0  0  0  0  0  0  0
  1  2  1  0  0  0  0
  1 33  1  0  0  0  0
  1 34  1  0  0  0  0
  1 35  1  0  0  0  0
  2  3  1  0  0  0  0
  3  4  1  0  0  0  0
  3 32  2  0  0  0  0
  4  5  2  0  0  0  0
  4 36  1  0  0  0  0
  5  6  1  0  0  0  0
  5  8  1  0  0  0  0
  6  7  1  0  0  0  0
  7 37  1  0  0  0  0
  7 38  1  0  0  0  0
  7 39  1  0  0  0  0
  8  9  2  0  0  0  0
  8 40  1  0  0  0  0
  9 10  1  0  0  0  0
  9 32  1  0  0  0  0
 10 11  1  0  0  0  0
 10 16  1  0  0  0  0
 11 12  1  0  0  0  0
 11 41  1  0  0  0  0
 11 42  1  0  0  0  0
 12 13  1  0  0  0  0
 12 14  1  0  0  0  0
 12 15  1  0  0  0  0
 13 43  1  0  0  0  0
 13 44  1  0  0  0  0
 13 45  1  0  0  0  0
 14 46  1  0  0  0  0
 14 47  1  0  0  0  0
 14 48  1  0  0  0  0
 15 49  1  0  0  0  0
 16 17  1  0  0  0  0
 16 31  2  0  0  0  0
 17 18  2  0  0  0  0
 17 50  1  0  0  0  0
 18 19  1  0  0  0  0
 18 51  1  0  0  0  0
 19 20  1  0  0  0  0
 19 30  2  0  0  0  0
 20 21  2  0  0  0  0
 21 22  1  0  0  0  0
 21 52  1  0  0  0  0
 22 23  1  0  0  0  0
 22 29  2  0  0  0  0
 23 24  1  0  0  0  0
 23 28  2  0  0  0  0
 24 25  2  0  0  0  0
 24 53  1  0  0  0  0
 25 26  1  0  0  0  0
 26 27  1  0  0  0  0
 26 28  1  0  0  0  0
 27 54  1  0  0  0  0
 27 55  1  0  0  0  0
 27 56  1  0  0  0  0
 28 57  1  0  0  0  0
 29 30  1  0  0  0  0
 30 31  1  0  0  0  0
 31 58  1  0  0  0  0
 32 59  1  0  0  0  0
M  END
$$$$
