CHEMBL4468893
 OpenBabel04072215383D

 68 71  0  0  0  0  0  0  0  0999 V2000
    0.7840   -0.3686   -0.0333 C   0  0  0  0  0  0  0  0  0  0  0  0
    2.1348    0.0280   -0.2886 O   0  0  0  0  0  0  0  0  0  0  0  0
    2.7772   -0.6598   -1.2883 C   0  0  0  0  0  0  0  0  0  0  0  0
    3.7791   -1.5243   -0.8197 C   0  0  0  0  0  0  0  0  0  0  0  0
    4.6482   -2.2015   -1.7093 C   0  0  0  0  0  0  0  0  0  0  0  0
    5.7089   -3.0516   -1.3346 C   0  0  0  0  0  0  0  0  0  0  0  0
    5.9654   -3.3202    0.0398 N   0  0  0  0  0  0  0  0  0  0  0  0
    7.1683   -3.9112    0.5011 C   0  0  0  0  0  0  0  0  0  0  0  0
    8.4128   -3.3958    0.0952 C   0  0  0  0  0  0  0  0  0  0  0  0
    9.6100   -4.0276    0.4526 C   0  0  0  0  0  0  0  0  0  0  0  0
    9.5605   -5.1754    1.2262 C   0  0  0  0  0  0  0  0  0  0  0  0
   10.7028   -5.8035    1.5389 F   0  0  0  0  0  0  0  0  0  0  0  0
    8.3421   -5.6711    1.6734 C   0  0  0  0  0  0  0  0  0  0  0  0
    8.3021   -6.7767    2.4286 F   0  0  0  0  0  0  0  0  0  0  0  0
    7.1479   -5.0429    1.3243 C   0  0  0  0  0  0  0  0  0  0  0  0
    6.5150   -3.6253   -2.2492 N   0  0  0  0  0  0  0  0  0  0  0  0
    6.2667   -3.3636   -3.5316 C   0  0  0  0  0  0  0  0  0  0  0  0
    5.2937   -2.5756   -3.9938 N   0  0  0  0  0  0  0  0  0  0  0  0
    4.5044   -1.9950   -3.0858 C   0  0  0  0  0  0  0  0  0  0  0  0
    3.5196   -1.1230   -3.5364 C   0  0  0  0  0  0  0  0  0  0  0  0
    2.6615   -0.4238   -2.6729 C   0  0  0  0  0  0  0  0  0  0  0  0
    1.8494    0.4664   -3.3613 O   0  0  0  0  0  0  0  0  0  0  0  0
    0.9878    1.2122   -2.5289 C   0  0  0  0  0  0  0  0  0  0  0  0
    0.1439    2.3183   -3.1386 C   0  0  0  0  0  0  0  0  0  0  0  0
   -0.5983    3.0031   -2.1051 O   0  0  0  0  0  0  0  0  0  0  0  0
    0.1808    3.6322   -1.0742 C   0  0  0  0  0  0  0  0  0  0  0  0
    1.0808    4.7312   -1.6235 C   0  0  0  0  0  0  0  0  0  0  0  0
    1.9126    5.2761   -0.5996 O   0  0  0  0  0  0  0  0  0  0  0  0
    2.7580    6.2953   -1.1540 C   0  0  0  0  0  0  0  0  0  0  0  0
    3.7244    6.7976   -0.0837 C   0  0  0  0  0  0  0  0  0  0  0  0
    3.0350    7.3809    1.0557 N   0  0  0  0  0  0  0  0  0  0  0  0
    2.5175    8.6556    0.9998 C   0  0  0  0  0  0  0  0  0  0  0  0
    2.6682    9.3998    0.0326 O   0  0  0  0  0  0  0  0  0  0  0  0
    1.7225    9.0758    2.2093 C   0  0  0  0  0  0  0  0  0  0  0  0
    0.3059    8.9240    1.9726 N   0  0  0  0  0  0  0  0  0  0  0  0
   -0.4558    9.5488    1.0240 C   0  0  0  0  0  0  0  0  0  0  0  0
   -1.7102    9.1785    1.1551 N   0  0  0  0  0  0  0  0  0  0  0  0
   -1.6556    8.3200    2.2223 C   0  0  0  0  0  0  0  0  0  0  0  0
   -2.8345    7.6443    2.7574 N   0  3  0  0  0  0  0  0  0  0  0  0
   -3.9187    7.8604    2.1968 O   0  0  0  0  0  0  0  0  0  0  0  0
   -2.6819    6.8954    3.7365 O   0  5  0  0  0  0  0  0  0  0  0  0
   -0.4410    8.1236    2.7594 N   0  0  0  0  0  0  0  0  0  0  0  0
    0.6964   -0.7802    0.9732 H   0  0  0  0  0  0  0  0  0  0  0  0
    0.3897   -1.0869   -0.7606 H   0  0  0  0  0  0  0  0  0  0  0  0
    0.1652    0.5385   -0.0472 H   0  0  0  0  0  0  0  0  0  0  0  0
    3.9170   -1.6257    0.2552 H   0  0  0  0  0  0  0  0  0  0  0  0
    5.1387   -3.7363    0.4562 H   0  0  0  0  0  0  0  0  0  0  0  0
    8.4499   -2.5063   -0.5304 H   0  0  0  0  0  0  0  0  0  0  0  0
   10.5612   -3.6376    0.1106 H   0  0  0  0  0  0  0  0  0  0  0  0
    6.2147   -5.4707    1.6765 H   0  0  0  0  0  0  0  0  0  0  0  0
    6.9177   -3.8307   -4.2627 H   0  0  0  0  0  0  0  0  0  0  0  0
    3.4451   -0.9463   -4.6084 H   0  0  0  0  0  0  0  0  0  0  0  0
    1.6051    1.6737   -1.7622 H   0  0  0  0  0  0  0  0  0  0  0  0
    0.2481    0.5194   -2.1370 H   0  0  0  0  0  0  0  0  0  0  0  0
   -0.5954    1.8780   -3.8171 H   0  0  0  0  0  0  0  0  0  0  0  0
    0.7224    3.0239   -3.7391 H   0  0  0  0  0  0  0  0  0  0  0  0
    0.7524    2.9031   -0.4888 H   0  0  0  0  0  0  0  0  0  0  0  0
   -0.5160    4.0606   -0.3440 H   0  0  0  0  0  0  0  0  0  0  0  0
    0.4555    5.5164   -2.0616 H   0  0  0  0  0  0  0  0  0  0  0  0
    1.7259    4.3325   -2.4117 H   0  0  0  0  0  0  0  0  0  0  0  0
    2.1301    7.1098   -1.5317 H   0  0  0  0  0  0  0  0  0  0  0  0
    3.3360    5.8759   -1.9863 H   0  0  0  0  0  0  0  0  0  0  0  0
    4.3956    7.5470   -0.5158 H   0  0  0  0  0  0  0  0  0  0  0  0
    4.3216    5.9676    0.3067 H   0  0  0  0  0  0  0  0  0  0  0  0
    2.6478    6.7211    1.7229 H   0  0  0  0  0  0  0  0  0  0  0  0
    1.9208   10.1309    2.4305 H   0  0  0  0  0  0  0  0  0  0  0  0
    2.0023    8.4839    3.0865 H   0  0  0  0  0  0  0  0  0  0  0  0
   -0.0534   10.2359    0.2909 H   0  0  0  0  0  0  0  0  0  0  0  0
  1  2  1  0  0  0  0
  1 43  1  0  0  0  0
  1 44  1  0  0  0  0
  1 45  1  0  0  0  0
  2  3  1  0  0  0  0
  3  4  1  0  0  0  0
  3 21  2  0  0  0  0
  4  5  2  0  0  0  0
  4 46  1  0  0  0  0
  5  6  1  0  0  0  0
  5 19  1  0  0  0  0
  6  7  1  0  0  0  0
  6 16  2  0  0  0  0
  7  8  1  0  0  0  0
  7 47  1  0  0  0  0
  8  9  1  0  0  0  0
  8 15  2  0  0  0  0
  9 10  2  0  0  0  0
  9 48  1  0  0  0  0
 10 11  1  0  0  0  0
 10 49  1  0  0  0  0
 11 12  1  0  0  0  0
 11 13  2  0  0  0  0
 13 14  1  0  0  0  0
 13 15  1  0  0  0  0
 15 50  1  0  0  0  0
 16 17  1  0  0  0  0
 17 18  2  0  0  0  0
 17 51  1  0  0  0  0
 18 19  1  0  0  0  0
 19 20  2  0  0  0  0
 20 21  1  0  0  0  0
 20 52  1  0  0  0  0
 21 22  1  0  0  0  0
 22 23  1  0  0  0  0
 23 24  1  0  0  0  0
 23 53  1  0  0  0  0
 23 54  1  0  0  0  0
 24 25  1  0  0  0  0
 24 55  1  0  0  0  0
 24 56  1  0  0  0  0
 25 26  1  0  0  0  0
 26 27  1  0  0  0  0
 26 57  1  0  0  0  0
 26 58  1  0  0  0  0
 27 28  1  0  0  0  0
 27 59  1  0  0  0  0
 27 60  1  0  0  0  0
 28 29  1  0  0  0  0
 29 30  1  0  0  0  0
 29 61  1  0  0  0  0
 29 62  1  0  0  0  0
 30 31  1  0  0  0  0
 30 63  1  0  0  0  0
 30 64  1  0  0  0  0
 31 32  1  0  0  0  0
 31 65  1  0  0  0  0
 32 33  2  0  0  0  0
 32 34  1  0  0  0  0
 34 35  1  0  0  0  0
 34 66  1  0  0  0  0
 34 67  1  0  0  0  0
 35 36  1  0  0  0  0
 35 42  1  0  0  0  0
 36 37  2  0  0  0  0
 36 68  1  0  0  0  0
 37 38  1  0  0  0  0
 38 39  1  0  0  0  0
 38 42  2  0  0  0  0
 39 40  2  0  0  0  0
 39 41  1  0  0  0  0
M  CHG  2  39   1  41  -1
M  END
$$$$
