CHEMBL462835
 OpenBabel04072215383D

 66 71  0  0  0  0  0  0  0  0999 V2000
    1.1690    2.1690    9.5084 C   0  0  0  0  0  0  0  0  0  0  0  0
    2.6073    1.6882    9.4827 C   0  0  0  0  0  0  0  0  0  0  0  0
    2.8935    0.8870    8.3123 N   0  0  0  0  0  0  0  0  0  0  0  0
    3.3512    1.3382    7.1093 C   0  0  0  0  0  0  0  0  0  0  0  0
    3.5674    0.3418    6.2784 N   0  0  0  0  0  0  0  0  0  0  0  0
    3.1889   -0.7888    6.9640 C   0  0  0  0  0  0  0  0  0  0  0  0
    3.2146   -2.1567    6.3852 C   0  0  0  0  0  0  0  0  0  0  0  0
    3.7803   -2.4523    5.1749 C   0  0  0  0  0  0  0  0  0  0  0  0
    3.6424   -3.8236    4.8308 C   0  0  0  0  0  0  0  0  0  0  0  0
    4.1273   -4.3672    3.6811 N   0  0  0  0  0  0  0  0  0  0  0  0
    3.8361   -5.6571    3.4733 C   0  0  0  0  0  0  0  0  0  0  0  0
    3.0735   -6.4318    4.3174 C   0  0  0  0  0  0  0  0  0  0  0  0
    2.5692   -5.8788    5.4983 C   0  0  0  0  0  0  0  0  0  0  0  0
    1.6897   -6.7430    6.1421 O   0  0  0  0  0  0  0  0  0  0  0  0
    1.2249   -6.5511    7.4157 C   0  0  0  0  0  0  0  0  0  0  0  0
   -0.1480   -6.3678    7.5575 C   0  0  0  0  0  0  0  0  0  0  0  0
   -0.7742   -6.6824    8.7695 C   0  0  0  0  0  0  0  0  0  0  0  0
   -0.0440   -7.1957    9.8508 C   0  0  0  0  0  0  0  0  0  0  0  0
   -0.6552   -7.7386   11.0118 N   0  0  0  0  0  0  0  0  0  0  0  0
   -2.0066   -7.7739   11.2823 C   0  0  0  0  0  0  0  0  0  0  0  0
   -2.8664   -7.1522   10.6609 O   0  0  0  0  0  0  0  0  0  0  0  0
   -2.3878   -8.5775   12.3489 N   0  0  0  0  0  0  0  0  0  0  0  0
   -3.7987   -8.6919   12.6699 C   0  0  0  0  0  0  0  0  0  0  0  0
   -3.8276   -9.6265   13.8604 C   0  0  0  0  0  0  0  0  0  0  0  0
   -2.5634   -9.3333   14.4810 N   0  0  0  0  0  0  0  0  0  0  0  0
   -2.2350   -9.7707   15.7692 C   0  0  0  0  0  0  0  0  0  0  0  0
   -1.9464  -11.1336   15.9516 C   0  0  0  0  0  0  0  0  0  0  0  0
   -1.6174  -11.6301   17.2149 C   0  0  0  0  0  0  0  0  0  0  0  0
   -1.5818  -10.7726   18.3078 C   0  0  0  0  0  0  0  0  0  0  0  0
   -1.8862   -9.4227   18.1355 C   0  0  0  0  0  0  0  0  0  0  0  0
   -2.2219   -8.9019   16.8759 C   0  0  0  0  0  0  0  0  0  0  0  0
   -2.5079   -7.5658   16.9499 O   0  0  0  0  0  0  0  0  0  0  0  0
   -2.9886   -6.8670   15.8177 C   0  0  0  0  0  0  0  0  0  0  0  0
   -1.6320   -8.9176   13.5020 C   0  0  0  0  0  0  0  0  0  0  0  0
   -0.4158   -8.8628   13.5911 O   0  0  0  0  0  0  0  0  0  0  0  0
    1.3488   -7.2678    9.7326 C   0  0  0  0  0  0  0  0  0  0  0  0
    1.9740   -6.9471    8.5196 C   0  0  0  0  0  0  0  0  0  0  0  0
    3.2968   -7.1330    8.4025 F   0  0  0  0  0  0  0  0  0  0  0  0
    2.8950   -4.5421    5.7790 C   0  0  0  0  0  0  0  0  0  0  0  0
    2.5273   -3.5300    7.1177 S   0  0  0  0  0  0  0  0  0  0  0  0
    2.7682   -0.4686    8.2336 C   0  0  0  0  0  0  0  0  0  0  0  0
    0.9679    2.7094   10.4373 H   0  0  0  0  0  0  0  0  0  0  0  0
    0.4682    1.3287    9.4425 H   0  0  0  0  0  0  0  0  0  0  0  0
    0.9646    2.8405    8.6682 H   0  0  0  0  0  0  0  0  0  0  0  0
    2.8189    1.0696   10.3628 H   0  0  0  0  0  0  0  0  0  0  0  0
    3.3046    2.5319    9.4923 H   0  0  0  0  0  0  0  0  0  0  0  0
    3.5055    2.3864    6.8890 H   0  0  0  0  0  0  0  0  0  0  0  0
    4.2753   -1.7171    4.5418 H   0  0  0  0  0  0  0  0  0  0  0  0
    4.2267   -6.0728    2.5480 H   0  0  0  0  0  0  0  0  0  0  0  0
    2.8455   -7.4599    4.0547 H   0  0  0  0  0  0  0  0  0  0  0  0
   -0.7554   -6.0770    6.7039 H   0  0  0  0  0  0  0  0  0  0  0  0
   -1.8555   -6.5916    8.7971 H   0  0  0  0  0  0  0  0  0  0  0  0
   -0.0537   -8.1921   11.6971 H   0  0  0  0  0  0  0  0  0  0  0  0
   -4.3821   -9.0453   11.8155 H   0  0  0  0  0  0  0  0  0  0  0  0
   -4.1582   -7.6931   12.9505 H   0  0  0  0  0  0  0  0  0  0  0  0
   -3.8304  -10.6730   13.5338 H   0  0  0  0  0  0  0  0  0  0  0  0
   -4.6721   -9.4410   14.5298 H   0  0  0  0  0  0  0  0  0  0  0  0
   -1.9560  -11.8175   15.1065 H   0  0  0  0  0  0  0  0  0  0  0  0
   -1.3773  -12.6824   17.3448 H   0  0  0  0  0  0  0  0  0  0  0  0
   -1.3190  -11.1461   19.2938 H   0  0  0  0  0  0  0  0  0  0  0  0
   -1.8644   -8.7584   18.9977 H   0  0  0  0  0  0  0  0  0  0  0  0
   -3.2040   -5.8398   16.1279 H   0  0  0  0  0  0  0  0  0  0  0  0
   -3.9297   -7.2894   15.4560 H   0  0  0  0  0  0  0  0  0  0  0  0
   -2.2292   -6.8058   15.0354 H   0  0  0  0  0  0  0  0  0  0  0  0
    1.9661   -7.6392   10.5451 H   0  0  0  0  0  0  0  0  0  0  0  0
    2.4112   -1.0729    9.0557 H   0  0  0  0  0  0  0  0  0  0  0  0
  1  2  1  0  0  0  0
  1 42  1  0  0  0  0
  1 43  1  0  0  0  0
  1 44  1  0  0  0  0
  2  3  1  0  0  0  0
  2 45  1  0  0  0  0
  2 46  1  0  0  0  0
  3  4  1  0  0  0  0
  3 41  1  0  0  0  0
  4  5  2  0  0  0  0
  4 47  1  0  0  0  0
  5  6  1  0  0  0  0
  6  7  1  0  0  0  0
  6 41  2  0  0  0  0
  7  8  2  0  0  0  0
  7 40  1  0  0  0  0
  8  9  1  0  0  0  0
  8 48  1  0  0  0  0
  9 10  1  0  0  0  0
  9 39  2  0  0  0  0
 10 11  2  0  0  0  0
 11 12  1  0  0  0  0
 11 49  1  0  0  0  0
 12 13  2  0  0  0  0
 12 50  1  0  0  0  0
 13 14  1  0  0  0  0
 13 39  1  0  0  0  0
 14 15  1  0  0  0  0
 15 16  1  0  0  0  0
 15 37  2  0  0  0  0
 16 17  2  0  0  0  0
 16 51  1  0  0  0  0
 17 18  1  0  0  0  0
 17 52  1  0  0  0  0
 18 19  1  0  0  0  0
 18 36  2  0  0  0  0
 19 20  1  0  0  0  0
 19 53  1  0  0  0  0
 20 21  2  0  0  0  0
 20 22  1  0  0  0  0
 22 23  1  0  0  0  0
 22 34  1  0  0  0  0
 23 24  1  0  0  0  0
 23 54  1  0  0  0  0
 23 55  1  0  0  0  0
 24 25  1  0  0  0  0
 24 56  1  0  0  0  0
 24 57  1  0  0  0  0
 25 26  1  0  0  0  0
 25 34  1  0  0  0  0
 26 27  1  0  0  0  0
 26 31  2  0  0  0  0
 27 28  2  0  0  0  0
 27 58  1  0  0  0  0
 28 29  1  0  0  0  0
 28 59  1  0  0  0  0
 29 30  2  0  0  0  0
 29 60  1  0  0  0  0
 30 31  1  0  0  0  0
 30 61  1  0  0  0  0
 31 32  1  0  0  0  0
 32 33  1  0  0  0  0
 33 62  1  0  0  0  0
 33 63  1  0  0  0  0
 33 64  1  0  0  0  0
 34 35  2  0  0  0  0
 36 37  1  0  0  0  0
 36 65  1  0  0  0  0
 37 38  1  0  0  0  0
 39 40  1  0  0  0  0
 41 66  1  0  0  0  0
M  END
$$$$
