CHEMBL3628795
 OpenBabel04072215373D

 49 52  0  0  0  0  0  0  0  0999 V2000
    2.0007    2.6681   -3.2817 C   0  0  0  0  0  0  0  0  0  0  0  0
    1.8057    1.2489   -3.7906 C   0  0  0  0  0  0  0  0  0  0  0  0
    2.7431    0.3957   -3.1199 O   0  0  0  0  0  0  0  0  0  0  0  0
    3.9483    0.3249   -3.7438 C   0  0  0  0  0  0  0  0  0  0  0  0
    4.1233    0.7049   -4.8967 O   0  0  0  0  0  0  0  0  0  0  0  0
    4.8931   -0.1723   -2.8913 N   0  0  0  0  0  0  0  0  0  0  0  0
    6.2877   -0.1485   -3.1159 C   0  0  0  0  0  0  0  0  0  0  0  0
    6.8411    0.6518   -4.1256 C   0  0  0  0  0  0  0  0  0  0  0  0
    8.2143    0.6820   -4.3693 C   0  0  0  0  0  0  0  0  0  0  0  0
    9.0871   -0.0554   -3.5793 C   0  0  0  0  0  0  0  0  0  0  0  0
   10.4657    0.0294   -3.8326 N   0  0  0  0  0  0  0  0  0  0  0  0
   11.5419   -0.2314   -2.9771 C   0  0  0  0  0  0  0  0  0  0  0  0
   11.3074   -0.2999   -1.6424 N   0  0  0  0  0  0  0  0  0  0  0  0
   12.3119   -0.5355   -0.8000 C   0  0  0  0  0  0  0  0  0  0  0  0
   13.5851   -0.7441   -1.1135 N   0  0  0  0  0  0  0  0  0  0  0  0
   13.8059   -0.6686   -2.4345 C   0  0  0  0  0  0  0  0  0  0  0  0
   15.3779   -0.9261   -3.0337 S   0  0  0  0  0  0  0  0  0  0  0  0
   14.8772   -0.6493   -4.6295 C   0  0  0  0  0  0  0  0  0  0  0  0
   13.5226   -0.3754   -4.7327 C   0  0  0  0  0  0  0  0  0  0  0  0
   12.8742   -0.3999   -3.4316 C   0  0  0  0  0  0  0  0  0  0  0  0
   12.9043   -0.0676   -6.0712 C   0  0  0  0  0  0  0  0  0  0  0  0
   13.8086   -0.4807   -7.2459 C   0  0  0  0  0  0  0  0  0  0  0  0
   15.2658   -0.0627   -7.0165 C   0  0  0  0  0  0  0  0  0  0  0  0
   15.8461   -0.7367   -5.7683 C   0  0  0  0  0  0  0  0  0  0  0  0
    8.5371   -0.8318   -2.5478 C   0  0  0  0  0  0  0  0  0  0  0  0
    7.1484   -0.9117   -2.3158 C   0  0  0  0  0  0  0  0  0  0  0  0
    6.6600   -1.8497   -1.2451 C   0  0  0  0  0  0  0  0  0  0  0  0
    1.3315    3.3684   -3.7876 H   0  0  0  0  0  0  0  0  0  0  0  0
    3.0338    3.0015   -3.4293 H   0  0  0  0  0  0  0  0  0  0  0  0
    1.8102    2.7065   -2.2044 H   0  0  0  0  0  0  0  0  0  0  0  0
    1.9145    1.2143   -4.8856 H   0  0  0  0  0  0  0  0  0  0  0  0
    0.7967    0.8949   -3.5682 H   0  0  0  0  0  0  0  0  0  0  0  0
    4.5396   -0.5657   -2.0356 H   0  0  0  0  0  0  0  0  0  0  0  0
    6.2285    1.2975   -4.7468 H   0  0  0  0  0  0  0  0  0  0  0  0
    8.5795    1.3065   -5.1779 H   0  0  0  0  0  0  0  0  0  0  0  0
   10.7181    0.4703   -4.7030 H   0  0  0  0  0  0  0  0  0  0  0  0
   12.0525   -0.5592    0.2538 H   0  0  0  0  0  0  0  0  0  0  0  0
   12.7261    1.0140   -6.1237 H   0  0  0  0  0  0  0  0  0  0  0  0
   11.9383   -0.5703   -6.1809 H   0  0  0  0  0  0  0  0  0  0  0  0
   13.4338   -0.0322   -8.1727 H   0  0  0  0  0  0  0  0  0  0  0  0
   13.7643   -1.5696   -7.3769 H   0  0  0  0  0  0  0  0  0  0  0  0
   15.3154    1.0279   -6.9037 H   0  0  0  0  0  0  0  0  0  0  0  0
   15.8757   -0.3228   -7.8891 H   0  0  0  0  0  0  0  0  0  0  0  0
   16.8014   -0.2659   -5.5104 H   0  0  0  0  0  0  0  0  0  0  0  0
   16.0455   -1.7937   -5.9842 H   0  0  0  0  0  0  0  0  0  0  0  0
    9.1989   -1.4282   -1.9240 H   0  0  0  0  0  0  0  0  0  0  0  0
    7.4628   -2.5111   -0.8983 H   0  0  0  0  0  0  0  0  0  0  0  0
    5.8717   -2.4993   -1.6401 H   0  0  0  0  0  0  0  0  0  0  0  0
    6.2823   -1.2963   -0.3799 H   0  0  0  0  0  0  0  0  0  0  0  0
  1  2  1  0  0  0  0
  1 28  1  0  0  0  0
  1 29  1  0  0  0  0
  1 30  1  0  0  0  0
  2  3  1  0  0  0  0
  2 31  1  0  0  0  0
  2 32  1  0  0  0  0
  3  4  1  0  0  0  0
  4  5  2  0  0  0  0
  4  6  1  0  0  0  0
  6  7  1  0  0  0  0
  6 33  1  0  0  0  0
  7  8  1  0  0  0  0
  7 26  2  0  0  0  0
  8  9  2  0  0  0  0
  8 34  1  0  0  0  0
  9 10  1  0  0  0  0
  9 35  1  0  0  0  0
 10 11  1  0  0  0  0
 10 25  2  0  0  0  0
 11 12  1  0  0  0  0
 11 36  1  0  0  0  0
 12 13  1  0  0  0  0
 12 20  2  0  0  0  0
 13 14  2  0  0  0  0
 14 15  1  0  0  0  0
 14 37  1  0  0  0  0
 15 16  2  0  0  0  0
 16 17  1  0  0  0  0
 16 20  1  0  0  0  0
 17 18  1  0  0  0  0
 18 19  2  0  0  0  0
 18 24  1  0  0  0  0
 19 20  1  0  0  0  0
 19 21  1  0  0  0  0
 21 22  1  0  0  0  0
 21 38  1  0  0  0  0
 21 39  1  0  0  0  0
 22 23  1  0  0  0  0
 22 40  1  0  0  0  0
 22 41  1  0  0  0  0
 23 24  1  0  0  0  0
 23 42  1  0  0  0  0
 23 43  1  0  0  0  0
 24 44  1  0  0  0  0
 24 45  1  0  0  0  0
 25 26  1  0  0  0  0
 25 46  1  0  0  0  0
 26 27  1  0  0  0  0
 27 47  1  0  0  0  0
 27 48  1  0  0  0  0
 27 49  1  0  0  0  0
M  END
$$$$
