CHEMBL3288511
 OpenBabel04072215363D

 47 51  0  0  0  0  0  0  0  0999 V2000
   -3.4866    3.0093    1.5130 N   0  0  0  0  0  0  0  0  0  0  0  0
   -3.2476    1.6985    1.3481 C   0  0  0  0  0  0  0  0  0  0  0  0
   -4.1415    0.8122    1.7747 N   0  0  0  0  0  0  0  0  0  0  0  0
   -3.6204   -0.3617    1.4169 N   0  0  0  0  0  0  0  0  0  0  0  0
   -2.4152   -0.2746    0.7760 C   0  0  0  0  0  0  0  0  0  0  0  0
   -1.6099   -1.2897    0.2529 C   0  0  0  0  0  0  0  0  0  0  0  0
   -0.4131   -0.9089   -0.3379 C   0  0  0  0  0  0  0  0  0  0  0  0
   -0.0395    0.4322   -0.3812 C   0  0  0  0  0  0  0  0  0  0  0  0
   -0.8474    1.4755    0.1444 C   0  0  0  0  0  0  0  0  0  0  0  0
   -0.3797    2.8807    0.0770 C   0  0  0  0  0  0  0  0  0  0  0  0
    0.3884    3.3575   -0.9964 C   0  0  0  0  0  0  0  0  0  0  0  0
    0.8189    4.6915   -1.0645 C   0  0  0  0  0  0  0  0  0  0  0  0
    0.4116    5.6485   -0.1088 C   0  0  0  0  0  0  0  0  0  0  0  0
    0.7044    7.0404   -0.1407 C   0  0  0  0  0  0  0  0  0  0  0  0
    1.5527    7.7084   -1.1646 C   0  0  0  0  0  0  0  0  0  0  0  0
    2.3683    8.5313   -0.7467 O   0  0  0  0  0  0  0  0  0  0  0  0
    1.3133    7.4137   -2.4937 N   0  0  0  0  0  0  0  0  0  0  0  0
    2.0192    7.9500   -3.5998 C   0  0  0  0  0  0  0  0  0  0  0  0
    3.1757    8.7285   -3.4753 C   0  0  0  0  0  0  0  0  0  0  0  0
    3.8076    9.2600   -4.6021 C   0  0  0  0  0  0  0  0  0  0  0  0
    3.3020    9.0103   -5.8769 C   0  0  0  0  0  0  0  0  0  0  0  0
    2.1651    8.2150   -6.0220 C   0  0  0  0  0  0  0  0  0  0  0  0
    1.5436    7.6901   -4.8880 C   0  0  0  0  0  0  0  0  0  0  0  0
    0.4475    6.9249   -5.0501 F   0  0  0  0  0  0  0  0  0  0  0  0
    0.2510    7.8909    0.8867 C   0  0  0  0  0  0  0  0  0  0  0  0
   -0.4943    7.3932    1.9459 C   0  0  0  0  0  0  0  0  0  0  0  0
   -0.7758    6.0351    1.9998 C   0  0  0  0  0  0  0  0  0  0  0  0
   -0.3314    5.1635    0.9944 C   0  0  0  0  0  0  0  0  0  0  0  0
   -0.6381    3.7979    1.1002 C   0  0  0  0  0  0  0  0  0  0  0  0
   -2.0976    1.0883    0.7314 C   0  0  0  0  0  0  0  0  0  0  0  0
   -4.4159    3.2385    1.8487 H   0  0  0  0  0  0  0  0  0  0  0  0
   -3.1416    3.6684    0.8253 H   0  0  0  0  0  0  0  0  0  0  0  0
   -4.1411   -1.2022    1.6364 H   0  0  0  0  0  0  0  0  0  0  0  0
   -1.9003   -2.3331    0.3052 H   0  0  0  0  0  0  0  0  0  0  0  0
    0.2458   -1.6652   -0.7584 H   0  0  0  0  0  0  0  0  0  0  0  0
    0.9265    0.6647   -0.8266 H   0  0  0  0  0  0  0  0  0  0  0  0
    0.6780    2.6941   -1.8093 H   0  0  0  0  0  0  0  0  0  0  0  0
    1.4725    4.9608   -1.8905 H   0  0  0  0  0  0  0  0  0  0  0  0
    0.5080    6.8397   -2.7241 H   0  0  0  0  0  0  0  0  0  0  0  0
    3.6207    8.9413   -2.5091 H   0  0  0  0  0  0  0  0  0  0  0  0
    4.6982    9.8718   -4.4763 H   0  0  0  0  0  0  0  0  0  0  0  0
    3.7925    9.4351   -6.7465 H   0  0  0  0  0  0  0  0  0  0  0  0
    1.7608    8.0036   -7.0060 H   0  0  0  0  0  0  0  0  0  0  0  0
    0.4955    8.9519    0.8638 H   0  0  0  0  0  0  0  0  0  0  0  0
   -0.8411    8.0576    2.7328 H   0  0  0  0  0  0  0  0  0  0  0  0
   -1.3611    5.6569    2.8374 H   0  0  0  0  0  0  0  0  0  0  0  0
   -1.1176    3.4451    2.0130 H   0  0  0  0  0  0  0  0  0  0  0  0
  1  2  1  0  0  0  0
  1 31  1  0  0  0  0
  1 32  1  0  0  0  0
  2  3  2  0  0  0  0
  2 30  1  0  0  0  0
  3  4  1  0  0  0  0
  4  5  1  0  0  0  0
  4 33  1  0  0  0  0
  5  6  1  0  0  0  0
  5 30  2  0  0  0  0
  6  7  2  0  0  0  0
  6 34  1  0  0  0  0
  7  8  1  0  0  0  0
  7 35  1  0  0  0  0
  8  9  2  0  0  0  0
  8 36  1  0  0  0  0
  9 10  1  0  0  0  0
  9 30  1  0  0  0  0
 10 11  1  0  0  0  0
 10 29  2  0  0  0  0
 11 12  2  0  0  0  0
 11 37  1  0  0  0  0
 12 13  1  0  0  0  0
 12 38  1  0  0  0  0
 13 14  1  0  0  0  0
 13 28  2  0  0  0  0
 14 15  1  0  0  0  0
 14 25  2  0  0  0  0
 15 16  2  0  0  0  0
 15 17  1  0  0  0  0
 17 18  1  0  0  0  0
 17 39  1  0  0  0  0
 18 19  1  0  0  0  0
 18 23  2  0  0  0  0
 19 20  2  0  0  0  0
 19 40  1  0  0  0  0
 20 21  1  0  0  0  0
 20 41  1  0  0  0  0
 21 22  2  0  0  0  0
 21 42  1  0  0  0  0
 22 23  1  0  0  0  0
 22 43  1  0  0  0  0
 23 24  1  0  0  0  0
 25 26  1  0  0  0  0
 25 44  1  0  0  0  0
 26 27  2  0  0  0  0
 26 45  1  0  0  0  0
 27 28  1  0  0  0  0
 27 46  1  0  0  0  0
 28 29  1  0  0  0  0
 29 47  1  0  0  0  0
M  END
$$$$
