CHEMBL593221
 OpenBabel04072215383D

 75 80  0  0  0  0  0  0  0  0999 V2000
    5.5163    3.9572   -2.5247 C   0  0  0  0  0  0  0  0  0  0  0  0
    4.9471    2.6595   -2.3636 O   0  0  0  0  0  0  0  0  0  0  0  0
    4.2118    2.4662   -1.2115 C   0  0  0  0  0  0  0  0  0  0  0  0
    3.8896    3.5107   -0.3055 C   0  0  0  0  0  0  0  0  0  0  0  0
    3.0901    3.2978    0.8276 C   0  0  0  0  0  0  0  0  0  0  0  0
    2.7021    4.4497    1.6991 C   0  0  0  0  0  0  0  0  0  0  0  0
    2.9955    5.7225    1.4710 N   0  0  0  0  0  0  0  0  0  0  0  0
    2.3989    6.5542    2.4274 C   0  0  0  0  0  0  0  0  0  0  0  0
    2.4549    7.9676    2.4955 C   0  0  0  0  0  0  0  0  0  0  0  0
    1.7749    8.6564    3.5139 C   0  0  0  0  0  0  0  0  0  0  0  0
    1.0405    7.9610    4.4675 C   0  0  0  0  0  0  0  0  0  0  0  0
    0.9784    6.5666    4.4293 C   0  0  0  0  0  0  0  0  0  0  0  0
    1.6640    5.8859    3.4053 C   0  0  0  0  0  0  0  0  0  0  0  0
    1.7583    4.1978    3.1237 S   0  0  0  0  0  0  0  0  0  0  0  0
    2.6688    1.9777    1.0494 C   0  0  0  0  0  0  0  0  0  0  0  0
    3.0037    0.9268    0.1693 C   0  0  0  0  0  0  0  0  0  0  0  0
    3.7482    1.1458   -0.9958 C   0  0  0  0  0  0  0  0  0  0  0  0
    4.1319    0.0782   -1.8765 N   0  0  0  0  0  0  0  0  0  0  0  0
    3.4239   -1.1272   -2.1659 C   0  0  0  0  0  0  0  0  0  0  0  0
    2.1809   -1.2623   -1.6481 N   0  0  0  0  0  0  0  0  0  0  0  0
    1.5288   -2.4044   -1.8977 C   0  0  0  0  0  0  0  0  0  0  0  0
    1.9786   -3.4225   -2.6229 N   0  0  0  0  0  0  0  0  0  0  0  0
    3.2045   -3.2979   -3.1177 C   0  0  0  0  0  0  0  0  0  0  0  0
    3.6608   -4.3958   -3.8259 C   0  0  0  0  0  0  0  0  0  0  0  0
    4.9537   -4.4865   -4.3553 C   0  0  0  0  0  0  0  0  0  0  0  0
    5.4014   -5.6256   -4.9836 O   0  0  0  0  0  0  0  0  0  0  0  0
    4.5256   -6.7563   -4.9632 C   0  0  0  0  0  0  0  0  0  0  0  0
    5.2334   -7.9876   -5.5089 C   0  0  0  0  0  0  0  0  0  0  0  0
    4.2621   -9.1753   -5.4952 C   0  0  0  0  0  0  0  0  0  0  0  0
    4.8362  -10.4097   -6.0366 N   0  0  0  0  0  0  0  0  0  0  0  0
    6.0040  -10.8796   -5.2684 C   0  0  0  0  0  0  0  0  0  0  0  0
    6.5690  -12.1997   -5.8357 C   0  0  0  0  0  0  0  0  0  0  0  0
    5.5930  -13.3024   -5.9190 N   0  0  0  0  0  0  0  0  0  0  0  0
    5.2831  -13.8407   -4.5970 C   0  0  0  0  0  0  0  0  0  0  0  0
    4.3812  -12.8174   -6.6110 C   0  0  0  0  0  0  0  0  0  0  0  0
    3.8142  -11.4788   -6.0793 C   0  0  0  0  0  0  0  0  0  0  0  0
    5.7986   -3.3786   -4.2185 C   0  0  0  0  0  0  0  0  0  0  0  0
    7.0861   -3.2425   -4.6752 O   0  0  0  0  0  0  0  0  0  0  0  0
    7.7170   -4.3573   -5.3006 C   0  0  0  0  0  0  0  0  0  0  0  0
    5.3235   -2.2314   -3.5283 C   0  0  0  0  0  0  0  0  0  0  0  0
    4.0212   -2.1725   -2.9373 C   0  0  0  0  0  0  0  0  0  0  0  0
    6.0392    3.9865   -3.4841 H   0  0  0  0  0  0  0  0  0  0  0  0
    6.2480    4.1540   -1.7335 H   0  0  0  0  0  0  0  0  0  0  0  0
    4.7461    4.7366   -2.5541 H   0  0  0  0  0  0  0  0  0  0  0  0
    4.2457    4.5241   -0.4696 H   0  0  0  0  0  0  0  0  0  0  0  0
    3.0183    8.5265    1.7537 H   0  0  0  0  0  0  0  0  0  0  0  0
    1.8158    9.7447    3.5588 H   0  0  0  0  0  0  0  0  0  0  0  0
    0.5096    8.5010    5.2496 H   0  0  0  0  0  0  0  0  0  0  0  0
    0.4032    6.0192    5.1708 H   0  0  0  0  0  0  0  0  0  0  0  0
    2.0595    1.7196    1.9122 H   0  0  0  0  0  0  0  0  0  0  0  0
    2.6578   -0.0725    0.4198 H   0  0  0  0  0  0  0  0  0  0  0  0
    4.5361    0.4731   -2.7232 H   0  0  0  0  0  0  0  0  0  0  0  0
    0.5438   -2.5166   -1.4600 H   0  0  0  0  0  0  0  0  0  0  0  0
    2.9526   -5.2121   -3.9318 H   0  0  0  0  0  0  0  0  0  0  0  0
    3.6467   -6.5448   -5.5833 H   0  0  0  0  0  0  0  0  0  0  0  0
    4.2225   -6.9788   -3.9321 H   0  0  0  0  0  0  0  0  0  0  0  0
    6.1143   -8.1779   -4.8859 H   0  0  0  0  0  0  0  0  0  0  0  0
    5.6034   -7.7954   -6.5229 H   0  0  0  0  0  0  0  0  0  0  0  0
    3.3928   -8.9004   -6.1080 H   0  0  0  0  0  0  0  0  0  0  0  0
    3.8900   -9.3382   -4.4748 H   0  0  0  0  0  0  0  0  0  0  0  0
    5.7443  -11.0043   -4.2091 H   0  0  0  0  0  0  0  0  0  0  0  0
    6.8134  -10.1445   -5.3189 H   0  0  0  0  0  0  0  0  0  0  0  0
    7.4414  -12.5072   -5.2463 H   0  0  0  0  0  0  0  0  0  0  0  0
    6.9518  -12.0055   -6.8469 H   0  0  0  0  0  0  0  0  0  0  0  0
    6.1975  -14.1927   -4.1060 H   0  0  0  0  0  0  0  0  0  0  0  0
    4.6237  -14.7103   -4.6878 H   0  0  0  0  0  0  0  0  0  0  0  0
    4.8010  -13.1167   -3.9325 H   0  0  0  0  0  0  0  0  0  0  0  0
    3.5983  -13.5854   -6.5840 H   0  0  0  0  0  0  0  0  0  0  0  0
    4.6294  -12.6872   -7.6729 H   0  0  0  0  0  0  0  0  0  0  0  0
    3.3822  -11.6376   -5.0821 H   0  0  0  0  0  0  0  0  0  0  0  0
    2.9918  -11.1728   -6.7380 H   0  0  0  0  0  0  0  0  0  0  0  0
    8.7401   -4.0642   -5.5589 H   0  0  0  0  0  0  0  0  0  0  0  0
    7.2191   -4.6274   -6.2380 H   0  0  0  0  0  0  0  0  0  0  0  0
    7.7938   -5.2102   -4.6173 H   0  0  0  0  0  0  0  0  0  0  0  0
    5.9953   -1.3803   -3.4285 H   0  0  0  0  0  0  0  0  0  0  0  0
  1  2  1  0  0  0  0
  1 42  1  0  0  0  0
  1 43  1  0  0  0  0
  1 44  1  0  0  0  0
  2  3  1  0  0  0  0
  3  4  1  0  0  0  0
  3 17  2  0  0  0  0
  4  5  2  0  0  0  0
  4 45  1  0  0  0  0
  5  6  1  0  0  0  0
  5 15  1  0  0  0  0
  6  7  2  0  0  0  0
  6 14  1  0  0  0  0
  7  8  1  0  0  0  0
  8  9  1  0  0  0  0
  8 13  2  0  0  0  0
  9 10  2  0  0  0  0
  9 46  1  0  0  0  0
 10 11  1  0  0  0  0
 10 47  1  0  0  0  0
 11 12  2  0  0  0  0
 11 48  1  0  0  0  0
 12 13  1  0  0  0  0
 12 49  1  0  0  0  0
 13 14  1  0  0  0  0
 15 16  2  0  0  0  0
 15 50  1  0  0  0  0
 16 17  1  0  0  0  0
 16 51  1  0  0  0  0
 17 18  1  0  0  0  0
 18 19  1  0  0  0  0
 18 52  1  0  0  0  0
 19 20  1  0  0  0  0
 19 41  2  0  0  0  0
 20 21  2  0  0  0  0
 21 22  1  0  0  0  0
 21 53  1  0  0  0  0
 22 23  2  0  0  0  0
 23 24  1  0  0  0  0
 23 41  1  0  0  0  0
 24 25  2  0  0  0  0
 24 54  1  0  0  0  0
 25 26  1  0  0  0  0
 25 37  1  0  0  0  0
 26 27  1  0  0  0  0
 27 28  1  0  0  0  0
 27 55  1  0  0  0  0
 27 56  1  0  0  0  0
 28 29  1  0  0  0  0
 28 57  1  0  0  0  0
 28 58  1  0  0  0  0
 29 30  1  0  0  0  0
 29 59  1  0  0  0  0
 29 60  1  0  0  0  0
 30 31  1  0  0  0  0
 30 36  1  0  0  0  0
 31 32  1  0  0  0  0
 31 61  1  0  0  0  0
 31 62  1  0  0  0  0
 32 33  1  0  0  0  0
 32 63  1  0  0  0  0
 32 64  1  0  0  0  0
 33 34  1  0  0  0  0
 33 35  1  0  0  0  0
 34 65  1  0  0  0  0
 34 66  1  0  0  0  0
 34 67  1  0  0  0  0
 35 36  1  0  0  0  0
 35 68  1  0  0  0  0
 35 69  1  0  0  0  0
 36 70  1  0  0  0  0
 36 71  1  0  0  0  0
 37 38  1  0  0  0  0
 37 40  2  0  0  0  0
 38 39  1  0  0  0  0
 39 72  1  0  0  0  0
 39 73  1  0  0  0  0
 39 74  1  0  0  0  0
 40 41  1  0  0  0  0
 40 75  1  0  0  0  0
M  END
$$$$
