CHEMBL2113193
 OpenBabel04072215363D

 64 67  0  0  0  0  0  0  0  0999 V2000
    2.6695   -0.5474    1.0437 C   0  0  0  0  0  0  0  0  0  0  0  0
    2.5100    0.2443   -0.1299 O   0  0  0  0  0  0  0  0  0  0  0  0
    3.2130   -0.0865   -1.2545 C   0  0  0  0  0  0  0  0  0  0  0  0
    4.3030   -0.9535   -1.2258 C   0  0  0  0  0  0  0  0  0  0  0  0
    4.9203   -1.3902   -2.4149 C   0  0  0  0  0  0  0  0  0  0  0  0
    5.9815   -2.3014   -2.4506 C   0  0  0  0  0  0  0  0  0  0  0  0
    6.4429   -2.8962   -1.2423 N   0  0  0  0  0  0  0  0  0  0  0  0
    7.7023   -3.4795   -1.1793 C   0  0  0  0  0  0  0  0  0  0  0  0
    8.8102   -2.9099   -1.6627 C   0  0  0  0  0  0  0  0  0  0  0  0
   10.1047   -3.5855   -1.7182 C   0  0  0  0  0  0  0  0  0  0  0  0
   11.0221   -3.0367   -2.3147 O   0  0  0  0  0  0  0  0  0  0  0  0
   10.2325   -4.9057   -1.0309 C   0  0  0  0  0  0  0  0  0  0  0  0
   11.4412   -5.5873   -0.9359 O   0  0  0  0  0  0  0  0  0  0  0  0
   12.6714   -4.8372   -0.9896 C   0  0  0  0  0  0  0  0  0  0  0  0
   12.8046   -3.8416    0.1630 C   0  0  0  0  0  0  0  0  0  0  0  0
   12.7546   -4.5140    1.3478 F   0  0  0  0  0  0  0  0  0  0  0  0
   13.8243   -5.8319   -0.9307 C   0  0  0  0  0  0  0  0  0  0  0  0
   15.0057   -5.1642   -1.0265 F   0  0  0  0  0  0  0  0  0  0  0  0
    9.1381   -5.4641   -0.4961 C   0  0  0  0  0  0  0  0  0  0  0  0
    7.8055   -4.8261   -0.5386 C   0  0  0  0  0  0  0  0  0  0  0  0
    6.8194   -5.3733   -0.0575 O   0  0  0  0  0  0  0  0  0  0  0  0
    6.5897   -2.6392   -3.6024 N   0  0  0  0  0  0  0  0  0  0  0  0
    6.1165   -2.0810   -4.7194 C   0  0  0  0  0  0  0  0  0  0  0  0
    5.0908   -1.2291   -4.7991 N   0  0  0  0  0  0  0  0  0  0  0  0
    4.5039   -0.8865   -3.6497 C   0  0  0  0  0  0  0  0  0  0  0  0
    3.4607    0.0329   -3.6655 C   0  0  0  0  0  0  0  0  0  0  0  0
    2.8304    0.4671   -2.4892 C   0  0  0  0  0  0  0  0  0  0  0  0
    1.8769    1.4407   -2.7061 O   0  0  0  0  0  0  0  0  0  0  0  0
    1.6672    2.3226   -1.6052 C   0  0  0  0  0  0  0  0  0  0  0  0
    1.2327    3.7204   -2.0525 C   0  0  0  0  0  0  0  0  0  0  0  0
    1.1837    4.5952   -0.7891 C   0  0  0  0  0  0  0  0  0  0  0  0
    0.7888    5.9993   -0.9601 N   0  0  0  0  0  0  0  0  0  0  0  0
    1.7268    6.7829   -1.7777 C   0  0  0  0  0  0  0  0  0  0  0  0
    2.7569    7.3271   -0.8085 C   0  0  0  0  0  0  0  0  0  0  0  0
    1.9270    7.6500    0.4150 C   0  0  0  0  0  0  0  0  0  0  0  0
    0.7647    6.6640    0.3662 C   0  0  0  0  0  0  0  0  0  0  0  0
    3.3331   -0.0275    1.7413 H   0  0  0  0  0  0  0  0  0  0  0  0
    3.0314   -1.5638    0.8629 H   0  0  0  0  0  0  0  0  0  0  0  0
    1.6868   -0.6501    1.5119 H   0  0  0  0  0  0  0  0  0  0  0  0
    4.7172   -1.2886   -0.2807 H   0  0  0  0  0  0  0  0  0  0  0  0
    5.7237   -3.5181   -0.8621 H   0  0  0  0  0  0  0  0  0  0  0  0
    8.7833   -1.9246   -2.1150 H   0  0  0  0  0  0  0  0  0  0  0  0
   12.7705   -4.3274   -1.9518 H   0  0  0  0  0  0  0  0  0  0  0  0
   11.9929   -3.1108    0.1833 H   0  0  0  0  0  0  0  0  0  0  0  0
   13.7526   -3.2976    0.1208 H   0  0  0  0  0  0  0  0  0  0  0  0
   13.7685   -6.5375   -1.7659 H   0  0  0  0  0  0  0  0  0  0  0  0
   13.8213   -6.4128   -0.0038 H   0  0  0  0  0  0  0  0  0  0  0  0
    9.1864   -6.4267    0.0061 H   0  0  0  0  0  0  0  0  0  0  0  0
    6.6188   -2.3397   -5.6453 H   0  0  0  0  0  0  0  0  0  0  0  0
    3.1400    0.4438   -4.6209 H   0  0  0  0  0  0  0  0  0  0  0  0
    2.5974    2.4554   -1.0392 H   0  0  0  0  0  0  0  0  0  0  0  0
    0.8880    1.8970   -0.9628 H   0  0  0  0  0  0  0  0  0  0  0  0
    0.2571    3.6799   -2.5515 H   0  0  0  0  0  0  0  0  0  0  0  0
    1.9473    4.0992   -2.7907 H   0  0  0  0  0  0  0  0  0  0  0  0
    2.1546    4.5384   -0.2793 H   0  0  0  0  0  0  0  0  0  0  0  0
    0.4497    4.1278   -0.1174 H   0  0  0  0  0  0  0  0  0  0  0  0
    1.1728    7.6165   -2.2276 H   0  0  0  0  0  0  0  0  0  0  0  0
    2.1868    6.2329   -2.6021 H   0  0  0  0  0  0  0  0  0  0  0  0
    3.2753    8.2081   -1.1982 H   0  0  0  0  0  0  0  0  0  0  0  0
    3.5081    6.5650   -0.5700 H   0  0  0  0  0  0  0  0  0  0  0  0
    1.5476    8.6764    0.3518 H   0  0  0  0  0  0  0  0  0  0  0  0
    2.5137    7.5609    1.3350 H   0  0  0  0  0  0  0  0  0  0  0  0
   -0.1859    7.1919    0.4972 H   0  0  0  0  0  0  0  0  0  0  0  0
    0.8434    5.9532    1.1994 H   0  0  0  0  0  0  0  0  0  0  0  0
  1  2  1  0  0  0  0
  1 37  1  0  0  0  0
  1 38  1  0  0  0  0
  1 39  1  0  0  0  0
  2  3  1  0  0  0  0
  3  4  1  0  0  0  0
  3 27  2  0  0  0  0
  4  5  2  0  0  0  0
  4 40  1  0  0  0  0
  5  6  1  0  0  0  0
  5 25  1  0  0  0  0
  6  7  1  0  0  0  0
  6 22  2  0  0  0  0
  7  8  1  0  0  0  0
  7 41  1  0  0  0  0
  8  9  2  0  0  0  0
  8 20  1  0  0  0  0
  9 10  1  0  0  0  0
  9 42  1  0  0  0  0
 10 11  2  0  0  0  0
 10 12  1  0  0  0  0
 12 13  1  0  0  0  0
 12 19  2  0  0  0  0
 13 14  1  0  0  0  0
 14 15  1  0  0  0  0
 14 17  1  0  0  0  0
 14 43  1  0  0  0  0
 15 16  1  0  0  0  0
 15 44  1  0  0  0  0
 15 45  1  0  0  0  0
 17 18  1  0  0  0  0
 17 46  1  0  0  0  0
 17 47  1  0  0  0  0
 19 20  1  0  0  0  0
 19 48  1  0  0  0  0
 20 21  2  0  0  0  0
 22 23  1  0  0  0  0
 23 24  2  0  0  0  0
 23 49  1  0  0  0  0
 24 25  1  0  0  0  0
 25 26  2  0  0  0  0
 26 27  1  0  0  0  0
 26 50  1  0  0  0  0
 27 28  1  0  0  0  0
 28 29  1  0  0  0  0
 29 30  1  0  0  0  0
 29 51  1  0  0  0  0
 29 52  1  0  0  0  0
 30 31  1  0  0  0  0
 30 53  1  0  0  0  0
 30 54  1  0  0  0  0
 31 32  1  0  0  0  0
 31 55  1  0  0  0  0
 31 56  1  0  0  0  0
 32 33  1  0  0  0  0
 32 36  1  0  0  0  0
 33 34  1  0  0  0  0
 33 57  1  0  0  0  0
 33 58  1  0  0  0  0
 34 35  1  0  0  0  0
 34 59  1  0  0  0  0
 34 60  1  0  0  0  0
 35 36  1  0  0  0  0
 35 61  1  0  0  0  0
 35 62  1  0  0  0  0
 36 63  1  0  0  0  0
 36 64  1  0  0  0  0
M  END
$$$$
