CHEMBL1336
 OpenBabel04072215363D

 48 50  0  0  0  0  0  0  0  0999 V2000
    5.8970    6.1050   -2.8179 C   0  0  0  0  0  0  0  0  0  0  0  0
    6.5915    4.9310   -2.3675 N   0  0  0  0  0  0  0  0  0  0  0  0
    6.1917    4.2359   -1.2470 C   0  0  0  0  0  0  0  0  0  0  0  0
    5.2282    4.5505   -0.5573 O   0  0  0  0  0  0  0  0  0  0  0  0
    7.0451    3.0526   -0.9064 C   0  0  0  0  0  0  0  0  0  0  0  0
    6.7090    2.2661    0.1840 C   0  0  0  0  0  0  0  0  0  0  0  0
    7.5831    1.2441    0.5370 C   0  0  0  0  0  0  0  0  0  0  0  0
    7.4049    0.4177    1.6207 O   0  0  0  0  0  0  0  0  0  0  0  0
    6.8703    0.9346    2.7794 C   0  0  0  0  0  0  0  0  0  0  0  0
    6.0755    0.0691    3.5239 C   0  0  0  0  0  0  0  0  0  0  0  0
    5.4751    0.5077    4.7060 C   0  0  0  0  0  0  0  0  0  0  0  0
    5.6609    1.8182    5.1671 C   0  0  0  0  0  0  0  0  0  0  0  0
    5.0252    2.3386    6.3121 N   0  0  0  0  0  0  0  0  0  0  0  0
    4.2590    1.6259    7.2182 C   0  0  0  0  0  0  0  0  0  0  0  0
    4.1245    0.4076    7.2255 O   0  0  0  0  0  0  0  0  0  0  0  0
    3.6069    2.4679    8.1111 N   0  0  0  0  0  0  0  0  0  0  0  0
    2.7591    1.9422    9.1107 C   0  0  0  0  0  0  0  0  0  0  0  0
    1.5240    2.5430    9.3297 C   0  0  0  0  0  0  0  0  0  0  0  0
    0.6369    1.9814   10.2487 C   0  0  0  0  0  0  0  0  0  0  0  0
    0.9860    0.8428   10.9869 C   0  0  0  0  0  0  0  0  0  0  0  0
   -0.1952    0.2545   12.0958 Cl  0  0  0  0  0  0  0  0  0  0  0  0
    2.2393    0.2438   10.8104 C   0  0  0  0  0  0  0  0  0  0  0  0
    2.7257   -0.9733   11.5526 C   0  0  0  0  0  0  0  0  0  0  0  0
    1.8745   -1.5085   12.4635 F   0  0  0  0  0  0  0  0  0  0  0  0
    3.0428   -1.9967   10.7089 F   0  0  0  0  0  0  0  0  0  0  0  0
    3.8742   -0.7105   12.2470 F   0  0  0  0  0  0  0  0  0  0  0  0
    3.1151    0.8143    9.8588 C   0  0  0  0  0  0  0  0  0  0  0  0
    6.4955    2.6683    4.4338 C   0  0  0  0  0  0  0  0  0  0  0  0
    7.1184    2.2212    3.2604 C   0  0  0  0  0  0  0  0  0  0  0  0
    8.6951    0.9821   -0.2577 C   0  0  0  0  0  0  0  0  0  0  0  0
    8.9327    1.8035   -1.3458 C   0  0  0  0  0  0  0  0  0  0  0  0
    8.1459    2.8469   -1.6863 N   0  0  0  0  0  0  0  0  0  0  0  0
    6.3778    6.4758   -3.7255 H   0  0  0  0  0  0  0  0  0  0  0  0
    5.9332    6.8677   -2.0351 H   0  0  0  0  0  0  0  0  0  0  0  0
    4.8536    5.8496   -3.0222 H   0  0  0  0  0  0  0  0  0  0  0  0
    7.4202    4.5904   -2.8485 H   0  0  0  0  0  0  0  0  0  0  0  0
    5.8047    2.4703    0.7474 H   0  0  0  0  0  0  0  0  0  0  0  0
    5.9117   -0.9519    3.1896 H   0  0  0  0  0  0  0  0  0  0  0  0
    4.8551   -0.2055    5.2378 H   0  0  0  0  0  0  0  0  0  0  0  0
    5.2387    3.2948    6.5597 H   0  0  0  0  0  0  0  0  0  0  0  0
    3.3454    3.3618    7.7220 H   0  0  0  0  0  0  0  0  0  0  0  0
    1.2080    3.4046    8.7484 H   0  0  0  0  0  0  0  0  0  0  0  0
   -0.3482    2.4270   10.3722 H   0  0  0  0  0  0  0  0  0  0  0  0
    4.0956    0.3569    9.7113 H   0  0  0  0  0  0  0  0  0  0  0  0
    6.6742    3.6911    4.7541 H   0  0  0  0  0  0  0  0  0  0  0  0
    7.7808    2.8989    2.7278 H   0  0  0  0  0  0  0  0  0  0  0  0
    9.3640    0.1605   -0.0244 H   0  0  0  0  0  0  0  0  0  0  0  0
    9.7966    1.6415   -1.9855 H   0  0  0  0  0  0  0  0  0  0  0  0
  1  2  1  0  0  0  0
  1 33  1  0  0  0  0
  1 34  1  0  0  0  0
  1 35  1  0  0  0  0
  2  3  1  0  0  0  0
  2 36  1  0  0  0  0
  3  4  2  0  0  0  0
  3  5  1  0  0  0  0
  5  6  1  0  0  0  0
  5 32  2  0  0  0  0
  6  7  2  0  0  0  0
  6 37  1  0  0  0  0
  7  8  1  0  0  0  0
  7 30  1  0  0  0  0
  8  9  1  0  0  0  0
  9 10  1  0  0  0  0
  9 29  2  0  0  0  0
 10 11  2  0  0  0  0
 10 38  1  0  0  0  0
 11 12  1  0  0  0  0
 11 39  1  0  0  0  0
 12 13  1  0  0  0  0
 12 28  2  0  0  0  0
 13 14  1  0  0  0  0
 13 40  1  0  0  0  0
 14 15  2  0  0  0  0
 14 16  1  0  0  0  0
 16 17  1  0  0  0  0
 16 41  1  0  0  0  0
 17 18  1  0  0  0  0
 17 27  2  0  0  0  0
 18 19  2  0  0  0  0
 18 42  1  0  0  0  0
 19 20  1  0  0  0  0
 19 43  1  0  0  0  0
 20 21  1  0  0  0  0
 20 22  2  0  0  0  0
 22 23  1  0  0  0  0
 22 27  1  0  0  0  0
 23 24  1  0  0  0  0
 23 25  1  0  0  0  0
 23 26  1  0  0  0  0
 27 44  1  0  0  0  0
 28 29  1  0  0  0  0
 28 45  1  0  0  0  0
 29 46  1  0  0  0  0
 30 31  2  0  0  0  0
 30 47  1  0  0  0  0
 31 32  1  0  0  0  0
 31 48  1  0  0  0  0
M  END
$$$$
