CHEMBL522732
 OpenBabel04072215383D

 50 54  0  0  0  0  0  0  0  0999 V2000
    2.1189   -1.0756   -0.9838 C   0  0  0  0  0  0  0  0  0  0  0  0
    0.9422   -0.2606   -0.6871 N   0  0  0  0  0  0  0  0  0  0  0  0
   -0.2305   -0.7508   -1.4520 C   0  0  0  0  0  0  0  0  0  0  0  0
   -1.5369    0.0100   -1.1127 C   0  0  0  0  0  0  0  0  0  0  0  0
   -1.7706   -0.0866    0.3342 N   0  0  0  0  0  0  0  0  0  0  0  0
   -3.0479   -0.0382    0.8700 C   0  0  0  0  0  0  0  0  0  0  0  0
   -3.2823   -0.6437    2.1203 C   0  0  0  0  0  0  0  0  0  0  0  0
   -4.5437   -0.7011    2.7213 C   0  0  0  0  0  0  0  0  0  0  0  0
   -5.5843   -0.1252    2.0047 C   0  0  0  0  0  0  0  0  0  0  0  0
   -6.9195   -0.0066    2.2670 N   0  0  0  0  0  0  0  0  0  0  0  0
   -7.5290    0.6375    1.2127 C   0  0  0  0  0  0  0  0  0  0  0  0
   -8.9382    0.8977    1.2600 C   0  0  0  0  0  0  0  0  0  0  0  0
   -9.5462    1.5272    0.2233 C   0  0  0  0  0  0  0  0  0  0  0  0
   -8.9158    1.8721   -0.9768 N   0  0  0  0  0  0  0  0  0  0  0  0
  -10.9836    1.8996    0.3379 C   0  0  0  0  0  0  0  0  0  0  0  0
  -11.6697    2.6066   -0.6631 C   0  0  0  0  0  0  0  0  0  0  0  0
  -12.9981    2.9818   -0.4755 C   0  0  0  0  0  0  0  0  0  0  0  0
  -13.6187    3.6924   -1.4268 F   0  0  0  0  0  0  0  0  0  0  0  0
  -13.6723    2.6371    0.6876 C   0  0  0  0  0  0  0  0  0  0  0  0
  -14.9458    3.0101    0.8677 F   0  0  0  0  0  0  0  0  0  0  0  0
  -13.0311    1.9090    1.6796 C   0  0  0  0  0  0  0  0  0  0  0  0
  -11.6921    1.5540    1.5021 C   0  0  0  0  0  0  0  0  0  0  0  0
  -11.0491    0.8504    2.5168 N   0  0  0  0  0  0  0  0  0  0  0  0
   -9.7317    0.5037    2.4763 C   0  0  0  0  0  0  0  0  0  0  0  0
   -9.2314   -0.1075    3.4235 O   0  0  0  0  0  0  0  0  0  0  0  0
   -6.6225    0.9547    0.2969 N   0  0  0  0  0  0  0  0  0  0  0  0
   -5.4207    0.4799    0.7693 C   0  0  0  0  0  0  0  0  0  0  0  0
   -4.1409    0.5269    0.1916 C   0  0  0  0  0  0  0  0  0  0  0  0
   -0.6554    0.4534    1.1324 C   0  0  0  0  0  0  0  0  0  0  0  0
    0.6412   -0.3038    0.7643 C   0  0  0  0  0  0  0  0  0  0  0  0
    2.3606   -1.0240   -2.0507 H   0  0  0  0  0  0  0  0  0  0  0  0
    1.9749   -2.1282   -0.7137 H   0  0  0  0  0  0  0  0  0  0  0  0
    2.9921   -0.6980   -0.4415 H   0  0  0  0  0  0  0  0  0  0  0  0
   -0.3912   -1.8187   -1.2448 H   0  0  0  0  0  0  0  0  0  0  0  0
   -0.0380   -0.6499   -2.5261 H   0  0  0  0  0  0  0  0  0  0  0  0
   -2.3530   -0.4514   -1.6810 H   0  0  0  0  0  0  0  0  0  0  0  0
   -1.4566    1.0607   -1.4191 H   0  0  0  0  0  0  0  0  0  0  0  0
   -2.4578   -1.1369    2.6323 H   0  0  0  0  0  0  0  0  0  0  0  0
   -4.6941   -1.1910    3.6763 H   0  0  0  0  0  0  0  0  0  0  0  0
   -7.3971   -0.3305    3.1005 H   0  0  0  0  0  0  0  0  0  0  0  0
   -7.9012    1.6947   -0.9152 H   0  0  0  0  0  0  0  0  0  0  0  0
   -9.0653    2.8394   -1.2455 H   0  0  0  0  0  0  0  0  0  0  0  0
  -11.1930    2.8827   -1.5981 H   0  0  0  0  0  0  0  0  0  0  0  0
  -13.5777    1.6455    2.5789 H   0  0  0  0  0  0  0  0  0  0  0  0
  -11.5499    0.5740    3.3520 H   0  0  0  0  0  0  0  0  0  0  0  0
   -4.0264    1.0108   -0.7701 H   0  0  0  0  0  0  0  0  0  0  0  0
   -0.8198    0.3562    2.2110 H   0  0  0  0  0  0  0  0  0  0  0  0
   -0.5377    1.5248    0.9223 H   0  0  0  0  0  0  0  0  0  0  0  0
    0.5386   -1.3458    1.0977 H   0  0  0  0  0  0  0  0  0  0  0  0
    1.4722    0.1407    1.3241 H   0  0  0  0  0  0  0  0  0  0  0  0
  1  2  1  0  0  0  0
  1 31  1  0  0  0  0
  1 32  1  0  0  0  0
  1 33  1  0  0  0  0
  2  3  1  0  0  0  0
  2 30  1  0  0  0  0
  3  4  1  0  0  0  0
  3 34  1  0  0  0  0
  3 35  1  0  0  0  0
  4  5  1  0  0  0  0
  4 36  1  0  0  0  0
  4 37  1  0  0  0  0
  5  6  1  0  0  0  0
  5 29  1  0  0  0  0
  6  7  1  0  0  0  0
  6 28  2  0  0  0  0
  7  8  2  0  0  0  0
  7 38  1  0  0  0  0
  8  9  1  0  0  0  0
  8 39  1  0  0  0  0
  9 10  1  0  0  0  0
  9 27  2  0  0  0  0
 10 11  1  0  0  0  0
 10 40  1  0  0  0  0
 11 12  1  0  0  0  0
 11 26  2  0  0  0  0
 12 13  2  0  0  0  0
 12 24  1  0  0  0  0
 13 14  1  0  0  0  0
 13 15  1  0  0  0  0
 14 41  1  0  0  0  0
 14 42  1  0  0  0  0
 15 16  1  0  0  0  0
 15 22  2  0  0  0  0
 16 17  2  0  0  0  0
 16 43  1  0  0  0  0
 17 18  1  0  0  0  0
 17 19  1  0  0  0  0
 19 20  1  0  0  0  0
 19 21  2  0  0  0  0
 21 22  1  0  0  0  0
 21 44  1  0  0  0  0
 22 23  1  0  0  0  0
 23 24  1  0  0  0  0
 23 45  1  0  0  0  0
 24 25  2  0  0  0  0
 26 27  1  0  0  0  0
 27 28  1  0  0  0  0
 28 46  1  0  0  0  0
 29 30  1  0  0  0  0
 29 47  1  0  0  0  0
 29 48  1  0  0  0  0
 30 49  1  0  0  0  0
 30 50  1  0  0  0  0
M  END
$$$$
