CHEMBL2016600
 OpenBabel04072215363D

 48 50  0  0  0  0  0  0  0  0999 V2000
    0.9551   -0.0963   -0.3366 C   0  0  0  0  0  0  0  0  0  0  0  0
    2.4215   -0.3277   -0.0417 C   0  0  0  0  0  0  0  0  0  0  0  0
    3.0870   -1.2254   -0.9727 N   0  0  0  0  0  0  0  0  0  0  0  0
    4.4411   -1.4206   -0.7542 C   0  0  0  0  0  0  0  0  0  0  0  0
    5.0295   -0.8108    0.1366 O   0  0  0  0  0  0  0  0  0  0  0  0
    5.0136   -2.3100   -1.6420 N   0  0  0  0  0  0  0  0  0  0  0  0
    6.3777   -2.7029   -1.5932 C   0  0  0  0  0  0  0  0  0  0  0  0
    7.1540   -2.5887   -0.4371 C   0  0  0  0  0  0  0  0  0  0  0  0
    8.5268   -2.8704   -0.4474 C   0  0  0  0  0  0  0  0  0  0  0  0
    9.1675   -3.3178   -1.6024 C   0  0  0  0  0  0  0  0  0  0  0  0
   10.5689   -3.4444   -1.7109 N   0  0  0  0  0  0  0  0  0  0  0  0
   11.5829   -3.4404   -0.7174 C   0  0  0  0  0  0  0  0  0  0  0  0
   11.2624   -3.7245    0.5599 N   0  0  0  0  0  0  0  0  0  0  0  0
   12.2412   -3.6526    1.4651 C   0  0  0  0  0  0  0  0  0  0  0  0
   13.5138   -3.3321    1.2239 N   0  0  0  0  0  0  0  0  0  0  0  0
   13.8211   -3.0263   -0.0350 C   0  0  0  0  0  0  0  0  0  0  0  0
   15.1186   -2.6090   -0.2848 C   0  0  0  0  0  0  0  0  0  0  0  0
   15.5502   -2.1764   -1.5459 C   0  0  0  0  0  0  0  0  0  0  0  0
   16.8138   -1.6916   -1.7601 O   0  0  0  0  0  0  0  0  0  0  0  0
   17.6545   -1.5042   -0.6251 C   0  0  0  0  0  0  0  0  0  0  0  0
   14.6486   -2.2372   -2.6164 C   0  0  0  0  0  0  0  0  0  0  0  0
   14.8456   -1.8801   -3.9246 O   0  0  0  0  0  0  0  0  0  0  0  0
   16.0843   -1.2899   -4.2931 C   0  0  0  0  0  0  0  0  0  0  0  0
   13.3421   -2.6985   -2.3800 C   0  0  0  0  0  0  0  0  0  0  0  0
   12.8989   -3.0681   -1.0834 C   0  0  0  0  0  0  0  0  0  0  0  0
    8.3707   -3.4828   -2.7494 C   0  0  0  0  0  0  0  0  0  0  0  0
    6.9908   -3.1958   -2.7453 C   0  0  0  0  0  0  0  0  0  0  0  0
    0.5534    0.6486    0.3603 H   0  0  0  0  0  0  0  0  0  0  0  0
    0.3786   -1.0178   -0.2130 H   0  0  0  0  0  0  0  0  0  0  0  0
    0.8040    0.2726   -1.3549 H   0  0  0  0  0  0  0  0  0  0  0  0
    2.5354   -0.7398    0.9681 H   0  0  0  0  0  0  0  0  0  0  0  0
    2.9514    0.6324   -0.0672 H   0  0  0  0  0  0  0  0  0  0  0  0
    2.5794   -2.0503   -1.2650 H   0  0  0  0  0  0  0  0  0  0  0  0
    4.5267   -2.4252   -2.5214 H   0  0  0  0  0  0  0  0  0  0  0  0
    6.7239   -2.2534    0.5023 H   0  0  0  0  0  0  0  0  0  0  0  0
    9.0788   -2.7005    0.4723 H   0  0  0  0  0  0  0  0  0  0  0  0
   10.8628   -3.9590   -2.5307 H   0  0  0  0  0  0  0  0  0  0  0  0
   11.9811   -3.8580    2.4979 H   0  0  0  0  0  0  0  0  0  0  0  0
   15.7886   -2.6042    0.5696 H   0  0  0  0  0  0  0  0  0  0  0  0
   18.5752   -1.0185   -0.9609 H   0  0  0  0  0  0  0  0  0  0  0  0
   17.9275   -2.4695   -0.1868 H   0  0  0  0  0  0  0  0  0  0  0  0
   17.1889   -0.8474    0.1187 H   0  0  0  0  0  0  0  0  0  0  0  0
   16.0173   -1.0069   -5.3485 H   0  0  0  0  0  0  0  0  0  0  0  0
   16.9037   -2.0098   -4.2024 H   0  0  0  0  0  0  0  0  0  0  0  0
   16.2769   -0.3713   -3.7293 H   0  0  0  0  0  0  0  0  0  0  0  0
   12.6507   -2.7258   -3.2197 H   0  0  0  0  0  0  0  0  0  0  0  0
    8.8265   -3.8075   -3.6815 H   0  0  0  0  0  0  0  0  0  0  0  0
    6.4310   -3.3132   -3.6692 H   0  0  0  0  0  0  0  0  0  0  0  0
  1  2  1  0  0  0  0
  1 28  1  0  0  0  0
  1 29  1  0  0  0  0
  1 30  1  0  0  0  0
  2  3  1  0  0  0  0
  2 31  1  0  0  0  0
  2 32  1  0  0  0  0
  3  4  1  0  0  0  0
  3 33  1  0  0  0  0
  4  5  2  0  0  0  0
  4  6  1  0  0  0  0
  6  7  1  0  0  0  0
  6 34  1  0  0  0  0
  7  8  1  0  0  0  0
  7 27  2  0  0  0  0
  8  9  2  0  0  0  0
  8 35  1  0  0  0  0
  9 10  1  0  0  0  0
  9 36  1  0  0  0  0
 10 11  1  0  0  0  0
 10 26  2  0  0  0  0
 11 12  1  0  0  0  0
 11 37  1  0  0  0  0
 12 13  1  0  0  0  0
 12 25  2  0  0  0  0
 13 14  2  0  0  0  0
 14 15  1  0  0  0  0
 14 38  1  0  0  0  0
 15 16  2  0  0  0  0
 16 17  1  0  0  0  0
 16 25  1  0  0  0  0
 17 18  2  0  0  0  0
 17 39  1  0  0  0  0
 18 19  1  0  0  0  0
 18 21  1  0  0  0  0
 19 20  1  0  0  0  0
 20 40  1  0  0  0  0
 20 41  1  0  0  0  0
 20 42  1  0  0  0  0
 21 22  1  0  0  0  0
 21 24  2  0  0  0  0
 22 23  1  0  0  0  0
 23 43  1  0  0  0  0
 23 44  1  0  0  0  0
 23 45  1  0  0  0  0
 24 25  1  0  0  0  0
 24 46  1  0  0  0  0
 26 27  1  0  0  0  0
 26 47  1  0  0  0  0
 27 48  1  0  0  0  0
M  END
$$$$
