CHEMBL240406
 OpenBabel04072215363D

 44 47  0  0  0  0  0  0  0  0999 V2000
    2.2440    0.0271    0.0016 C   0  0  0  0  0  0  0  0  0  0  0  0
    0.7745   -0.0720   -0.0043 C   0  0  0  0  0  0  0  0  0  0  0  0
    0.0310    1.0423    0.0007 N   0  0  0  0  0  0  0  0  0  0  0  0
   -1.3096    0.5982    0.0014 O   0  0  0  0  0  0  0  0  0  0  0  0
   -1.3214   -0.7953   -0.0032 C   0  0  0  0  0  0  0  0  0  0  0  0
   -2.4685   -1.5454   -0.0144 N   0  0  0  0  0  0  0  0  0  0  0  0
   -3.7204   -1.0632    0.6058 C   0  0  0  0  0  0  0  0  0  0  0  0
   -4.2318   -1.9352    1.6964 C   0  0  0  0  0  0  0  0  0  0  0  0
   -3.3645   -2.6734    2.4736 C   0  0  0  0  0  0  0  0  0  0  0  0
   -3.8443   -3.4567    3.4837 C   0  0  0  0  0  0  0  0  0  0  0  0
   -5.1440   -3.5788    3.7693 N   0  0  0  0  0  0  0  0  0  0  0  0
   -5.9820   -2.8749    2.9975 C   0  0  0  0  0  0  0  0  0  0  0  0
   -5.5794   -2.0477    1.9809 C   0  0  0  0  0  0  0  0  0  0  0  0
   -0.0026   -1.2521    0.0037 C   0  0  0  0  0  0  0  0  0  0  0  0
    0.4464   -2.6906    0.0087 C   0  0  0  0  0  0  0  0  0  0  0  0
   -0.3348   -3.6308    0.0056 O   0  0  0  0  0  0  0  0  0  0  0  0
    1.8171   -3.0197    0.0464 N   0  0  0  0  0  0  0  0  0  0  0  0
    2.2629   -4.3903    0.0809 C   0  0  0  0  0  0  0  0  0  0  0  0
    1.4489   -5.4379   -0.3218 C   0  0  0  0  0  0  0  0  0  0  0  0
    1.7220   -6.7813   -0.2215 N   0  0  0  0  0  0  0  0  0  0  0  0
    3.0144   -6.9740    0.2444 C   0  0  0  0  0  0  0  0  0  0  0  0
    3.2936   -8.2758    0.1478 C   0  0  0  0  0  0  0  0  0  0  0  0
    4.5196   -8.6132    0.5594 C   0  0  0  0  0  0  0  0  0  0  0  0
    5.6585   -8.9681    0.9338 C   0  0  0  0  0  0  0  0  0  0  0  0
    5.1681   -7.1167    0.8750 C   0  0  0  0  0  0  0  0  0  0  0  0
    3.9694   -6.1127    0.5435 C   0  0  0  0  0  0  0  0  0  0  0  0
    3.5445   -4.7252    0.5108 C   0  0  0  0  0  0  0  0  0  0  0  0
    2.5619    1.0613   -0.0095 H   0  0  0  0  0  0  0  0  0  0  0  0
    2.6562   -0.4723   -0.8726 H   0  0  0  0  0  0  0  0  0  0  0  0
    2.6454   -0.4498    0.8937 H   0  0  0  0  0  0  0  0  0  0  0  0
   -2.5221   -2.4541   -0.4397 H   0  0  0  0  0  0  0  0  0  0  0  0
   -4.4945   -1.0087   -0.1793 H   0  0  0  0  0  0  0  0  0  0  0  0
   -3.5330   -0.0578    1.0250 H   0  0  0  0  0  0  0  0  0  0  0  0
   -2.3136   -2.6427    2.2983 H   0  0  0  0  0  0  0  0  0  0  0  0
   -3.1521   -4.0100    4.0880 H   0  0  0  0  0  0  0  0  0  0  0  0
   -7.0290   -2.9752    3.1985 H   0  0  0  0  0  0  0  0  0  0  0  0
   -6.3090   -1.5015    1.4213 H   0  0  0  0  0  0  0  0  0  0  0  0
    2.5229   -2.2928    0.0592 H   0  0  0  0  0  0  0  0  0  0  0  0
    0.4650   -5.2138   -0.6837 H   0  0  0  0  0  0  0  0  0  0  0  0
    2.7792   -9.1428   -0.1241 H   0  0  0  0  0  0  0  0  0  0  0  0
    5.5727   -8.4350    1.0069 H   0  0  0  0  0  0  0  0  0  0  0  0
    5.2794  -10.3738    0.7444 H   0  0  0  0  0  0  0  0  0  0  0  0
    5.9908   -5.9789    1.2559 H   0  0  0  0  0  0  0  0  0  0  0  0
    4.2183   -3.9542    0.8308 H   0  0  0  0  0  0  0  0  0  0  0  0
  1  2  1  0  0  0  0
  1 28  1  0  0  0  0
  1 29  1  0  0  0  0
  1 30  1  0  0  0  0
  2  3  2  0  0  0  0
  2 14  1  0  0  0  0
  3  4  1  0  0  0  0
  4  5  1  0  0  0  0
  5  6  1  0  0  0  0
  5 14  2  0  0  0  0
  6  7  1  0  0  0  0
  6 31  1  0  0  0  0
  7  8  1  0  0  0  0
  7 32  1  0  0  0  0
  7 33  1  0  0  0  0
  8  9  1  0  0  0  0
  8 13  2  0  0  0  0
  9 10  2  0  0  0  0
  9 34  1  0  0  0  0
 10 11  1  0  0  0  0
 10 35  1  0  0  0  0
 11 12  2  0  0  0  0
 12 13  1  0  0  0  0
 12 36  1  0  0  0  0
 13 37  1  0  0  0  0
 14 15  1  0  0  0  0
 15 16  2  0  0  0  0
 15 17  1  0  0  0  0
 17 18  1  0  0  0  0
 17 38  1  0  0  0  0
 18 19  1  0  0  0  0
 18 27  2  0  0  0  0
 19 20  2  0  0  0  0
 19 39  1  0  0  0  0
 20 21  1  0  0  0  0
 21 22  1  0  0  0  0
 21 26  2  0  0  0  0
 22 23  2  0  0  0  0
 22 40  1  0  0  0  0
 23 24  1  0  0  0  0
 23 41  1  0  0  0  0
 24 25  2  0  0  0  0
 24 42  1  0  0  0  0
 25 26  1  0  0  0  0
 25 43  1  0  0  0  0
 26 27  1  0  0  0  0
 27 44  1  0  0  0  0
M  END
$$$$
