CHEMBL3910031
 OpenBabel04072215373D

 53 57  0  0  1  0  0  0  0  0999 V2000
   -2.4743   -0.4878   -6.2651 C   0  0  0  0  0  0  0  0  0  0  0  0
   -1.5585   -0.4095   -5.1748 O   0  0  0  0  0  0  0  0  0  0  0  0
   -0.2529   -0.1182   -5.4836 C   0  0  0  0  0  0  0  0  0  0  0  0
    0.1813    0.2086   -6.7713 C   0  0  0  0  0  0  0  0  0  0  0  0
    1.5429    0.4734   -7.0385 C   0  0  0  0  0  0  0  0  0  0  0  0
    2.0574    0.8155   -8.2960 C   0  0  0  0  0  0  0  0  0  0  0  0
    1.1743    0.9733   -9.4014 N   0  0  0  0  0  0  0  0  0  0  0  0
    1.6119    0.9772  -10.7449 C   0  0  0  0  0  0  0  0  0  0  0  0
    2.4703   -0.0290  -11.2065 C   0  0  0  0  0  0  0  0  0  0  0  0
    3.0102    0.0215  -12.4903 C   0  0  0  0  0  0  0  0  0  0  0  0
    2.6824    1.0777  -13.3402 C   0  0  0  0  0  0  0  0  0  0  0  0
    3.5378    1.1299  -15.0337 Br  0  0  0  0  0  0  0  0  0  0  0  0
    1.7755    2.0546  -12.9141 C   0  0  0  0  0  0  0  0  0  0  0  0
    1.3016    3.3818  -13.9163 Cl  0  0  0  0  0  0  0  0  0  0  0  0
    1.2320    1.9957  -11.6240 C   0  0  0  0  0  0  0  0  0  0  0  0
    3.3767    1.0087   -8.4992 N   0  0  0  0  0  0  0  0  0  0  0  0
    4.1754    0.8826   -7.4400 C   0  0  0  0  0  0  0  0  0  0  0  0
    3.7877    0.5760   -6.1982 N   0  0  0  0  0  0  0  0  0  0  0  0
    2.4813    0.3730   -6.0109 C   0  0  0  0  0  0  0  0  0  0  0  0
    2.0406    0.0528   -4.7354 C   0  0  0  0  0  0  0  0  0  0  0  0
    0.6890   -0.1742   -4.4417 C   0  0  0  0  0  0  0  0  0  0  0  0
    0.2193   -0.3987   -3.1666 O   0  0  0  0  0  0  0  0  0  0  0  0
    1.1331   -0.9669   -2.2096 C   0  0  1  0  0  0  0  0  0  0  0  0
    1.9538    0.1057   -1.4922 C   0  0  0  0  0  0  0  0  0  0  0  0
    1.2096    0.5268   -0.3410 O   0  0  0  0  0  0  0  0  0  0  0  0
    0.4540   -0.6074    0.1014 C   0  0  2  0  0  0  0  0  0  0  0  0
    1.2300   -1.3805    1.1657 C   0  0  1  0  0  0  0  0  0  0  0  0
    0.8395   -1.0893    2.5057 O   0  0  0  0  0  0  0  0  0  0  0  0
    1.1454    0.2517    2.8790 C   0  0  0  0  0  0  0  0  0  0  0  0
    0.9073   -2.8144    0.7961 C   0  0  0  0  0  0  0  0  0  0  0  0
    0.8846   -2.8374   -0.6382 O   0  0  0  0  0  0  0  0  0  0  0  0
    0.3262   -1.5784   -1.0674 C   0  0  2  0  0  0  0  0  0  0  0  0
   -3.4349   -0.8454   -5.8849 H   0  0  0  0  0  0  0  0  0  0  0  0
   -2.1384   -1.2031   -7.0257 H   0  0  0  0  0  0  0  0  0  0  0  0
   -2.6352    0.5026   -6.7057 H   0  0  0  0  0  0  0  0  0  0  0  0
   -0.5166    0.2467   -7.6004 H   0  0  0  0  0  0  0  0  0  0  0  0
    0.5298    1.7302   -9.1951 H   0  0  0  0  0  0  0  0  0  0  0  0
    2.7492   -0.8471  -10.5457 H   0  0  0  0  0  0  0  0  0  0  0  0
    3.7033   -0.7564  -12.8010 H   0  0  0  0  0  0  0  0  0  0  0  0
    0.5470    2.7736  -11.2979 H   0  0  0  0  0  0  0  0  0  0  0  0
    5.2362    1.0446   -7.5984 H   0  0  0  0  0  0  0  0  0  0  0  0
    2.8052    0.0024   -3.9685 H   0  0  0  0  0  0  0  0  0  0  0  0
    1.7638   -1.7199   -2.6970 H   0  0  0  0  0  0  0  0  0  0  0  0
    2.1651    0.9943   -2.0900 H   0  0  0  0  0  0  0  0  0  0  0  0
    2.9023   -0.3154   -1.1386 H   0  0  0  0  0  0  0  0  0  0  0  0
   -0.5169   -0.2549    0.4636 H   0  0  0  0  0  0  0  0  0  0  0  0
    2.3116   -1.2169    1.0679 H   0  0  0  0  0  0  0  0  0  0  0  0
    0.9363    0.3665    3.9459 H   0  0  0  0  0  0  0  0  0  0  0  0
    0.5137    0.9571    2.3319 H   0  0  0  0  0  0  0  0  0  0  0  0
    2.2023    0.4762    2.7042 H   0  0  0  0  0  0  0  0  0  0  0  0
   -0.0686   -3.1320    1.1823 H   0  0  0  0  0  0  0  0  0  0  0  0
    1.6606   -3.5178    1.1626 H   0  0  0  0  0  0  0  0  0  0  0  0
   -0.7238   -1.7486   -1.3298 H   0  0  0  0  0  0  0  0  0  0  0  0
  1  2  1  0  0  0  0
  1 33  1  0  0  0  0
  1 34  1  0  0  0  0
  1 35  1  0  0  0  0
  2  3  1  0  0  0  0
  3  4  1  0  0  0  0
  3 21  2  0  0  0  0
  4  5  2  0  0  0  0
  4 36  1  0  0  0  0
  5  6  1  0  0  0  0
  5 19  1  0  0  0  0
  6  7  1  0  0  0  0
  6 16  2  0  0  0  0
  7  8  1  0  0  0  0
  7 37  1  0  0  0  0
  8  9  1  0  0  0  0
  8 15  2  0  0  0  0
  9 10  2  0  0  0  0
  9 38  1  0  0  0  0
 10 11  1  0  0  0  0
 10 39  1  0  0  0  0
 11 12  1  0  0  0  0
 11 13  2  0  0  0  0
 13 14  1  0  0  0  0
 13 15  1  0  0  0  0
 15 40  1  0  0  0  0
 16 17  1  0  0  0  0
 17 18  2  0  0  0  0
 17 41  1  0  0  0  0
 18 19  1  0  0  0  0
 19 20  2  0  0  0  0
 20 21  1  0  0  0  0
 20 42  1  0  0  0  0
 21 22  1  0  0  0  0
 23 24  1  0  0  0  0
 23 32  1  0  0  0  0
 23 22  1  0  0  0  0
 23 43  1  6  0  0  0
 24 25  1  0  0  0  0
 24 44  1  0  0  0  0
 24 45  1  0  0  0  0
 25 26  1  0  0  0  0
 26 27  1  0  0  0  0
 26 32  1  0  0  0  0
 26 46  1  1  0  0  0
 27 28  1  0  0  0  0
 27 30  1  0  0  0  0
 27 47  1  6  0  0  0
 28 29  1  0  0  0  0
 29 48  1  0  0  0  0
 29 49  1  0  0  0  0
 29 50  1  0  0  0  0
 30 31  1  0  0  0  0
 30 51  1  0  0  0  0
 30 52  1  0  0  0  0
 31 32  1  0  0  0  0
 32 53  1  6  0  0  0
M  END
$$$$
