CHEMBL4063920
 OpenBabel04072215383D

 56 60  0  0  0  0  0  0  0  0999 V2000
    1.3195    1.2372   -2.2570 N   0  0  0  0  0  0  0  0  0  0  0  0
    0.5361    0.2839   -1.7305 C   0  0  0  0  0  0  0  0  0  0  0  0
    0.6960   -0.9811   -2.1055 N   0  0  0  0  0  0  0  0  0  0  0  0
   -0.1902   -1.6459   -1.3640 N   0  0  0  0  0  0  0  0  0  0  0  0
   -0.9186   -0.8618   -0.5123 C   0  0  0  0  0  0  0  0  0  0  0  0
   -1.8952   -1.2253    0.4169 C   0  0  0  0  0  0  0  0  0  0  0  0
   -2.4896   -0.2027    1.1431 C   0  0  0  0  0  0  0  0  0  0  0  0
   -2.1402    1.1276    0.9126 C   0  0  0  0  0  0  0  0  0  0  0  0
   -1.1618    1.5149   -0.0431 C   0  0  0  0  0  0  0  0  0  0  0  0
   -0.8935    2.9533   -0.3101 C   0  0  0  0  0  0  0  0  0  0  0  0
   -0.5951    3.4147   -1.5986 C   0  0  0  0  0  0  0  0  0  0  0  0
   -0.2619    4.7431   -1.8523 C   0  0  0  0  0  0  0  0  0  0  0  0
   -0.3672    5.6855   -0.8415 C   0  0  0  0  0  0  0  0  0  0  0  0
   -0.8140    5.3021    0.4136 C   0  0  0  0  0  0  0  0  0  0  0  0
   -1.1442    6.2356    1.4159 N   0  0  0  0  0  0  0  0  0  0  0  0
   -1.1875    7.6122    1.2737 C   0  0  0  0  0  0  0  0  0  0  0  0
   -0.8011    8.2934    0.3302 O   0  0  0  0  0  0  0  0  0  0  0  0
   -1.7595    8.3101    2.4501 C   0  0  0  0  0  0  0  0  0  0  0  0
   -0.7908    8.5298    3.5598 C   0  0  0  0  0  0  0  0  0  0  0  0
   -0.8738    7.8423    4.5662 O   0  0  0  0  0  0  0  0  0  0  0  0
    0.1361    9.5328    3.3198 N   0  0  0  0  0  0  0  0  0  0  0  0
    1.0718    9.9132    4.3021 C   0  0  0  0  0  0  0  0  0  0  0  0
    1.8145    8.9158    4.9564 C   0  0  0  0  0  0  0  0  0  0  0  0
    2.7827    9.2568    5.8984 C   0  0  0  0  0  0  0  0  0  0  0  0
    3.7893    7.9005    6.7473 Br  0  0  0  0  0  0  0  0  0  0  0  0
    3.0230   10.5908    6.2044 C   0  0  0  0  0  0  0  0  0  0  0  0
    2.2904   11.5864    5.5557 C   0  0  0  0  0  0  0  0  0  0  0  0
    1.3054   11.2605    4.6113 C   0  0  0  0  0  0  0  0  0  0  0  0
    0.6841   12.3436    4.0643 O   0  0  0  0  0  0  0  0  0  0  0  0
   -0.7295   12.3358    3.9236 C   0  0  0  0  0  0  0  0  0  0  0  0
   -1.3439   11.2651    4.4627 F   0  0  0  0  0  0  0  0  0  0  0  0
   -1.2393   13.4396    4.5113 F   0  0  0  0  0  0  0  0  0  0  0  0
   -1.0262   12.3809    2.6051 F   0  0  0  0  0  0  0  0  0  0  0  0
   -3.2189    8.0107    2.8207 C   0  0  0  0  0  0  0  0  0  0  0  0
   -2.8731    9.3303    2.2070 C   0  0  0  0  0  0  0  0  0  0  0  0
   -1.0098    3.9371    0.6942 C   0  0  0  0  0  0  0  0  0  0  0  0
   -0.5069    0.4544   -0.7521 C   0  0  0  0  0  0  0  0  0  0  0  0
    2.0839    0.9123   -2.8380 H   0  0  0  0  0  0  0  0  0  0  0  0
    1.5437    2.0654   -1.7179 H   0  0  0  0  0  0  0  0  0  0  0  0
   -0.2515   -2.6502   -1.4797 H   0  0  0  0  0  0  0  0  0  0  0  0
   -2.1825   -2.2608    0.5687 H   0  0  0  0  0  0  0  0  0  0  0  0
   -3.2525   -0.4406    1.8813 H   0  0  0  0  0  0  0  0  0  0  0  0
   -2.6780    1.8840    1.4812 H   0  0  0  0  0  0  0  0  0  0  0  0
   -0.6069    2.7336   -2.4462 H   0  0  0  0  0  0  0  0  0  0  0  0
    0.0479    5.0486   -2.8474 H   0  0  0  0  0  0  0  0  0  0  0  0
   -0.1269    6.7141   -1.0859 H   0  0  0  0  0  0  0  0  0  0  0  0
   -1.4913    5.8644    2.2944 H   0  0  0  0  0  0  0  0  0  0  0  0
   -0.0545   10.1634    2.5473 H   0  0  0  0  0  0  0  0  0  0  0  0
    1.6653    7.8682    4.7035 H   0  0  0  0  0  0  0  0  0  0  0  0
    3.7752   10.8653    6.9394 H   0  0  0  0  0  0  0  0  0  0  0  0
    2.4800   12.6287    5.8043 H   0  0  0  0  0  0  0  0  0  0  0  0
   -3.4940    7.9977    3.8692 H   0  0  0  0  0  0  0  0  0  0  0  0
   -3.7793    7.3062    2.2136 H   0  0  0  0  0  0  0  0  0  0  0  0
   -2.9525   10.2046    2.8403 H   0  0  0  0  0  0  0  0  0  0  0  0
   -3.1864    9.5072    1.1810 H   0  0  0  0  0  0  0  0  0  0  0  0
   -1.2909    3.6462    1.7047 H   0  0  0  0  0  0  0  0  0  0  0  0
  1  2  1  0  0  0  0
  1 38  1  0  0  0  0
  1 39  1  0  0  0  0
  2  3  2  0  0  0  0
  2 37  1  0  0  0  0
  3  4  1  0  0  0  0
  4  5  1  0  0  0  0
  4 40  1  0  0  0  0
  5  6  1  0  0  0  0
  5 37  2  0  0  0  0
  6  7  2  0  0  0  0
  6 41  1  0  0  0  0
  7  8  1  0  0  0  0
  7 42  1  0  0  0  0
  8  9  2  0  0  0  0
  8 43  1  0  0  0  0
  9 10  1  0  0  0  0
  9 37  1  0  0  0  0
 10 11  1  0  0  0  0
 10 36  2  0  0  0  0
 11 12  2  0  0  0  0
 11 44  1  0  0  0  0
 12 13  1  0  0  0  0
 12 45  1  0  0  0  0
 13 14  2  0  0  0  0
 13 46  1  0  0  0  0
 14 15  1  0  0  0  0
 14 36  1  0  0  0  0
 15 16  1  0  0  0  0
 15 47  1  0  0  0  0
 16 17  2  0  0  0  0
 16 18  1  0  0  0  0
 18 19  1  0  0  0  0
 18 34  1  0  0  0  0
 18 35  1  0  0  0  0
 19 20  2  0  0  0  0
 19 21  1  0  0  0  0
 21 22  1  0  0  0  0
 21 48  1  0  0  0  0
 22 23  1  0  0  0  0
 22 28  2  0  0  0  0
 23 24  2  0  0  0  0
 23 49  1  0  0  0  0
 24 25  1  0  0  0  0
 24 26  1  0  0  0  0
 26 27  2  0  0  0  0
 26 50  1  0  0  0  0
 27 28  1  0  0  0  0
 27 51  1  0  0  0  0
 28 29  1  0  0  0  0
 29 30  1  0  0  0  0
 30 31  1  0  0  0  0
 30 32  1  0  0  0  0
 30 33  1  0  0  0  0
 34 35  1  0  0  0  0
 34 52  1  0  0  0  0
 34 53  1  0  0  0  0
 35 54  1  0  0  0  0
 35 55  1  0  0  0  0
 36 56  1  0  0  0  0
M  END
$$$$
