CHEMBL188997
 OpenBabel04072215363D

 65 68  0  0  0  0  0  0  0  0999 V2000
    1.1799    0.1302   -0.1241 C   0  0  0  0  0  0  0  0  0  0  0  0
    2.6453    0.2259   -0.1774 N   0  0  0  0  0  0  0  0  0  0  0  0
    3.2621    1.0223    0.8032 C   0  0  0  0  0  0  0  0  0  0  0  0
    2.8038    1.0401    2.1189 C   0  0  0  0  0  0  0  0  0  0  0  0
    3.4505    1.7973    3.0942 C   0  0  0  0  0  0  0  0  0  0  0  0
    4.5817    2.5583    2.7925 C   0  0  0  0  0  0  0  0  0  0  0  0
    5.2586    3.3438    3.7536 N   0  0  0  0  0  0  0  0  0  0  0  0
    4.9661    3.3793    5.1029 C   0  0  0  0  0  0  0  0  0  0  0  0
    4.1503    2.6613    5.6713 O   0  0  0  0  0  0  0  0  0  0  0  0
    5.6801    4.3640    5.7715 N   0  0  0  0  0  0  0  0  0  0  0  0
    5.4562    4.5360    7.1622 C   0  0  0  0  0  0  0  0  0  0  0  0
    5.4462    3.4422    8.0376 C   0  0  0  0  0  0  0  0  0  0  0  0
    5.1033    3.6062    9.3880 C   0  0  0  0  0  0  0  0  0  0  0  0
    5.0848    2.4256   10.3294 C   0  0  0  0  0  0  0  0  0  0  0  0
    5.4520    1.2501    9.7481 F   0  0  0  0  0  0  0  0  0  0  0  0
    5.9345    2.5983   11.3807 F   0  0  0  0  0  0  0  0  0  0  0  0
    3.8570    2.2084   10.8754 F   0  0  0  0  0  0  0  0  0  0  0  0
    4.7650    4.8898    9.8486 C   0  0  0  0  0  0  0  0  0  0  0  0
    4.8027    5.9879    8.9841 C   0  0  0  0  0  0  0  0  0  0  0  0
    5.1690    5.8076    7.6542 C   0  0  0  0  0  0  0  0  0  0  0  0
    5.1676    6.8596    6.8214 F   0  0  0  0  0  0  0  0  0  0  0  0
    5.0492    2.5568    1.4770 C   0  0  0  0  0  0  0  0  0  0  0  0
    4.3897    1.8019    0.4945 C   0  0  0  0  0  0  0  0  0  0  0  0
    3.2415   -0.8681   -0.8542 C   0  0  0  0  0  0  0  0  0  0  0  0
    4.5457   -1.2401   -0.6180 C   0  0  0  0  0  0  0  0  0  0  0  0
    5.0433   -2.2956   -1.3435 C   0  0  0  0  0  0  0  0  0  0  0  0
    4.3351   -2.9570   -2.2732 N   0  0  0  0  0  0  0  0  0  0  0  0
    3.0602   -2.5783   -2.4196 C   0  0  0  0  0  0  0  0  0  0  0  0
    2.2937   -3.2719   -3.3534 N   0  0  0  0  0  0  0  0  0  0  0  0
    0.9022   -3.4312   -3.4056 C   0  0  0  0  0  0  0  0  0  0  0  0
    0.2562   -3.5547   -4.6394 C   0  0  0  0  0  0  0  0  0  0  0  0
   -1.1448   -3.5536   -4.7234 C   0  0  0  0  0  0  0  0  0  0  0  0
   -1.9364   -3.4547   -3.5705 C   0  0  0  0  0  0  0  0  0  0  0  0
   -3.4301   -3.2636   -3.6337 C   0  0  0  0  0  0  0  0  0  0  0  0
   -4.3072   -4.6411   -4.3524 S   0  0  0  0  0  0  0  0  0  0  0  0
   -3.8813   -6.0390   -3.3422 C   0  0  0  0  0  0  0  0  0  0  0  0
   -5.7238   -4.3928   -4.1401 O   0  0  0  0  0  0  0  0  0  0  0  0
   -3.8163   -4.8861   -5.6956 O   0  0  0  0  0  0  0  0  0  0  0  0
   -1.2896   -3.3802   -2.3317 C   0  0  0  0  0  0  0  0  0  0  0  0
    0.1056   -3.3567   -2.2575 C   0  0  0  0  0  0  0  0  0  0  0  0
    2.5040   -1.5657   -1.7360 N   0  0  0  0  0  0  0  0  0  0  0  0
    0.7257    0.9896    0.3856 H   0  0  0  0  0  0  0  0  0  0  0  0
    0.8645   -0.7768    0.4076 H   0  0  0  0  0  0  0  0  0  0  0  0
    0.7412    0.1223   -1.1290 H   0  0  0  0  0  0  0  0  0  0  0  0
    1.9505    0.4402    2.4226 H   0  0  0  0  0  0  0  0  0  0  0  0
    3.0278    1.7504    4.0909 H   0  0  0  0  0  0  0  0  0  0  0  0
    6.0879    3.8352    3.4532 H   0  0  0  0  0  0  0  0  0  0  0  0
    5.7867    5.2243    5.2473 H   0  0  0  0  0  0  0  0  0  0  0  0
    5.6814    2.4464    7.6613 H   0  0  0  0  0  0  0  0  0  0  0  0
    4.4653    5.0337   10.8861 H   0  0  0  0  0  0  0  0  0  0  0  0
    4.5261    6.9773    9.3351 H   0  0  0  0  0  0  0  0  0  0  0  0
    5.9228    3.1352    1.1892 H   0  0  0  0  0  0  0  0  0  0  0  0
    4.7588    1.8278   -0.5293 H   0  0  0  0  0  0  0  0  0  0  0  0
    5.1666   -0.7603    0.1282 H   0  0  0  0  0  0  0  0  0  0  0  0
    6.0560   -2.6508   -1.1888 H   0  0  0  0  0  0  0  0  0  0  0  0
    2.8613   -3.8250   -3.9732 H   0  0  0  0  0  0  0  0  0  0  0  0
    0.8371   -3.5864   -5.5585 H   0  0  0  0  0  0  0  0  0  0  0  0
   -1.6020   -3.5833   -5.7119 H   0  0  0  0  0  0  0  0  0  0  0  0
   -3.6666   -2.3721   -4.2234 H   0  0  0  0  0  0  0  0  0  0  0  0
   -3.8505   -3.1200   -2.6316 H   0  0  0  0  0  0  0  0  0  0  0  0
   -4.1271   -5.8119   -2.3030 H   0  0  0  0  0  0  0  0  0  0  0  0
   -2.8211   -6.2643   -3.4577 H   0  0  0  0  0  0  0  0  0  0  0  0
   -4.4801   -6.8876   -3.6836 H   0  0  0  0  0  0  0  0  0  0  0  0
   -1.8544   -3.2857   -1.4069 H   0  0  0  0  0  0  0  0  0  0  0  0
    0.5721   -3.2645   -1.2791 H   0  0  0  0  0  0  0  0  0  0  0  0
  1  2  1  0  0  0  0
  1 42  1  0  0  0  0
  1 43  1  0  0  0  0
  1 44  1  0  0  0  0
  2  3  1  0  0  0  0
  2 24  1  0  0  0  0
  3  4  1  0  0  0  0
  3 23  2  0  0  0  0
  4  5  2  0  0  0  0
  4 45  1  0  0  0  0
  5  6  1  0  0  0  0
  5 46  1  0  0  0  0
  6  7  1  0  0  0  0
  6 22  2  0  0  0  0
  7  8  1  0  0  0  0
  7 47  1  0  0  0  0
  8  9  2  0  0  0  0
  8 10  1  0  0  0  0
 10 11  1  0  0  0  0
 10 48  1  0  0  0  0
 11 12  1  0  0  0  0
 11 20  2  0  0  0  0
 12 13  2  0  0  0  0
 12 49  1  0  0  0  0
 13 14  1  0  0  0  0
 13 18  1  0  0  0  0
 14 15  1  0  0  0  0
 14 16  1  0  0  0  0
 14 17  1  0  0  0  0
 18 19  2  0  0  0  0
 18 50  1  0  0  0  0
 19 20  1  0  0  0  0
 19 51  1  0  0  0  0
 20 21  1  0  0  0  0
 22 23  1  0  0  0  0
 22 52  1  0  0  0  0
 23 53  1  0  0  0  0
 24 25  1  0  0  0  0
 24 41  2  0  0  0  0
 25 26  2  0  0  0  0
 25 54  1  0  0  0  0
 26 27  1  0  0  0  0
 26 55  1  0  0  0  0
 27 28  2  0  0  0  0
 28 29  1  0  0  0  0
 28 41  1  0  0  0  0
 29 30  1  0  0  0  0
 29 56  1  0  0  0  0
 30 31  1  0  0  0  0
 30 40  2  0  0  0  0
 31 32  2  0  0  0  0
 31 57  1  0  0  0  0
 32 33  1  0  0  0  0
 32 58  1  0  0  0  0
 33 34  1  0  0  0  0
 33 39  2  0  0  0  0
 34 35  1  0  0  0  0
 34 59  1  0  0  0  0
 34 60  1  0  0  0  0
 35 36  1  0  0  0  0
 35 37  2  0  0  0  0
 35 38  2  0  0  0  0
 36 61  1  0  0  0  0
 36 62  1  0  0  0  0
 36 63  1  0  0  0  0
 39 40  1  0  0  0  0
 39 64  1  0  0  0  0
 40 65  1  0  0  0  0
M  END
$$$$
