CHEMBL2377475
 OpenBabel04072215363D

 38 41  0  0  0  0  0  0  0  0999 V2000
    2.5720    0.0115    0.8066 C   0  0  0  0  0  0  0  0  0  0  0  0
    1.0914   -0.0306    0.6132 C   0  0  0  0  0  0  0  0  0  0  0  0
    0.2652   -0.7934    1.4548 C   0  0  0  0  0  0  0  0  0  0  0  0
   -1.1219   -0.7893    1.2782 C   0  0  0  0  0  0  0  0  0  0  0  0
   -1.7012   -0.0231    0.2544 C   0  0  0  0  0  0  0  0  0  0  0  0
   -3.1704    0.0382    0.0558 C   0  0  0  0  0  0  0  0  0  0  0  0
   -4.1534   -0.5570    0.8467 C   0  0  0  0  0  0  0  0  0  0  0  0
   -5.4282   -0.2909    0.3777 C   0  0  0  0  0  0  0  0  0  0  0  0
   -6.5764   -0.7187    0.9494 N   0  0  0  0  0  0  0  0  0  0  0  0
   -7.7514   -0.3784    0.4079 N   0  0  0  0  0  0  0  0  0  0  0  0
   -7.8200    0.3472   -0.7171 N   0  0  0  0  0  0  0  0  0  0  0  0
   -6.6890    0.7590   -1.3610 C   0  0  0  0  0  0  0  0  0  0  0  0
   -6.7657    1.4978   -2.5912 N   0  0  0  0  0  0  0  0  0  0  0  0
   -7.8579    2.4041   -2.8832 C   0  0  0  0  0  0  0  0  0  0  0  0
   -8.4813    2.0067   -4.2262 C   0  0  0  0  0  0  0  0  0  0  0  0
   -7.4946    1.9715   -5.2484 O   0  0  0  0  0  0  0  0  0  0  0  0
   -6.5388    0.9734   -4.9448 C   0  0  0  0  0  0  0  0  0  0  0  0
   -5.7939    1.3248   -3.6627 C   0  0  0  0  0  0  0  0  0  0  0  0
   -5.4646    0.4512   -0.7706 C   0  0  0  0  0  0  0  0  0  0  0  0
   -3.8451    1.0189   -1.3078 Se  0  0  0  0  0  0  0  0  0  0  0  0
   -0.8509    0.7170   -0.6003 C   0  0  0  0  0  0  0  0  0  0  0  0
    0.5240    0.7135   -0.4201 C   0  0  0  0  0  0  0  0  0  0  0  0
    2.8838   -0.6209    1.6623 H   0  0  0  0  0  0  0  0  0  0  0  0
    2.8755    1.0608    1.0097 H   0  0  0  0  0  0  0  0  0  0  0  0
    3.0805   -0.3430   -0.1146 H   0  0  0  0  0  0  0  0  0  0  0  0
    0.6919   -1.3832    2.2546 H   0  0  0  0  0  0  0  0  0  0  0  0
   -1.7312   -1.3798    1.9471 H   0  0  0  0  0  0  0  0  0  0  0  0
   -3.9662   -1.1559    1.7289 H   0  0  0  0  0  0  0  0  0  0  0  0
   -7.4375    3.4308   -2.9842 H   0  0  0  0  0  0  0  0  0  0  0  0
   -8.6173    2.4252   -2.0719 H   0  0  0  0  0  0  0  0  0  0  0  0
   -9.2442    2.7649   -4.5005 H   0  0  0  0  0  0  0  0  0  0  0  0
   -8.9989    1.0247   -4.1481 H   0  0  0  0  0  0  0  0  0  0  0  0
   -5.7998    0.9033   -5.7714 H   0  0  0  0  0  0  0  0  0  0  0  0
   -7.0235   -0.0261   -4.8551 H   0  0  0  0  0  0  0  0  0  0  0  0
   -5.2256    2.2695   -3.8065 H   0  0  0  0  0  0  0  0  0  0  0  0
   -5.1014    0.4798   -3.4831 H   0  0  0  0  0  0  0  0  0  0  0  0
   -1.2287    1.3212   -1.4127 H   0  0  0  0  0  0  0  0  0  0  0  0
    1.1435    1.3048   -1.0846 H   0  0  0  0  0  0  0  0  0  0  0  0
  1  2  1  0  0  0  0
  1 23  1  0  0  0  0
  1 24  1  0  0  0  0
  1 25  1  0  0  0  0
  2  3  1  0  0  0  0
  2 22  2  0  0  0  0
  3  4  2  0  0  0  0
  3 26  1  0  0  0  0
  4  5  1  0  0  0  0
  4 27  1  0  0  0  0
  5  6  1  0  0  0  0
  5 21  2  0  0  0  0
  6  7  2  0  0  0  0
  6 20  1  0  0  0  0
  7  8  1  0  0  0  0
  7 28  1  0  0  0  0
  8  9  1  0  0  0  0
  8 19  2  0  0  0  0
  9 10  2  0  0  0  0
 10 11  1  0  0  0  0
 11 12  2  0  0  0  0
 12 13  1  0  0  0  0
 12 19  1  0  0  0  0
 13 14  1  0  0  0  0
 13 18  1  0  0  0  0
 14 15  1  0  0  0  0
 14 29  1  0  0  0  0
 14 30  1  0  0  0  0
 15 16  1  0  0  0  0
 15 31  1  0  0  0  0
 15 32  1  0  0  0  0
 16 17  1  0  0  0  0
 17 18  1  0  0  0  0
 17 33  1  0  0  0  0
 17 34  1  0  0  0  0
 18 35  1  0  0  0  0
 18 36  1  0  0  0  0
 19 20  1  0  0  0  0
 21 22  1  0  0  0  0
 21 37  1  0  0  0  0
 22 38  1  0  0  0  0
M  END
$$$$
