CHEMBL505610
 OpenBabel04072215383D

 34 37  0  0  0  0  0  0  0  0999 V2000
    0.8775    2.0992    0.5924 C   0  0  0  0  0  0  0  0  0  0  0  0
    0.1714    1.2436   -0.1613 C   0  0  0  0  0  0  0  0  0  0  0  0
   -1.2208    1.1092    0.0350 C   0  0  0  0  0  0  0  0  0  0  0  0
   -2.0617    0.3211    0.8226 C   0  0  0  0  0  0  0  0  0  0  0  0
   -1.6641   -0.7386    1.7375 C   0  0  0  0  0  0  0  0  0  0  0  0
   -2.4326   -0.9857    2.8837 C   0  0  0  0  0  0  0  0  0  0  0  0
   -2.1304   -2.0601    3.7251 C   0  0  0  0  0  0  0  0  0  0  0  0
   -1.0582   -2.8995    3.4272 C   0  0  0  0  0  0  0  0  0  0  0  0
   -0.2759   -2.6531    2.3013 C   0  0  0  0  0  0  0  0  0  0  0  0
   -0.5752   -1.5751    1.4636 C   0  0  0  0  0  0  0  0  0  0  0  0
   -3.3995    0.6393    0.6137 N   0  0  0  0  0  0  0  0  0  0  0  0
   -3.3504    1.5488   -0.3172 C   0  0  0  0  0  0  0  0  0  0  0  0
   -4.5364    2.4557   -1.2041 S   0  0  0  0  0  0  0  0  0  0  0  0
   -3.2184    3.2588   -2.0760 C   0  0  0  0  0  0  0  0  0  0  0  0
   -2.0020    2.8377   -1.6918 C   0  0  0  0  0  0  0  0  0  0  0  0
   -2.0870    1.8750   -0.7052 N   0  0  0  0  0  0  0  0  0  0  0  0
    2.3187    2.3268    0.4167 C   0  0  0  0  0  0  0  0  0  0  0  0
    2.9756    3.2518    1.2020 C   0  0  0  0  0  0  0  0  0  0  0  0
    4.3160    3.4160    0.9479 C   0  0  0  0  0  0  0  0  0  0  0  0
    4.9837    2.7307    0.0021 N   0  0  0  0  0  0  0  0  0  0  0  0
    4.2526    1.8543   -0.7004 C   0  0  0  0  0  0  0  0  0  0  0  0
    2.9448    1.6151   -0.5462 N   0  0  0  0  0  0  0  0  0  0  0  0
    0.3878    2.6815    1.3691 H   0  0  0  0  0  0  0  0  0  0  0  0
    0.6427    0.6497   -0.9413 H   0  0  0  0  0  0  0  0  0  0  0  0
   -3.2866   -0.3511    3.1144 H   0  0  0  0  0  0  0  0  0  0  0  0
   -2.7450   -2.2513    4.6009 H   0  0  0  0  0  0  0  0  0  0  0  0
   -0.8410   -3.7521    4.0646 H   0  0  0  0  0  0  0  0  0  0  0  0
    0.5563   -3.3097    2.0605 H   0  0  0  0  0  0  0  0  0  0  0  0
    0.0318   -1.4304    0.5743 H   0  0  0  0  0  0  0  0  0  0  0  0
   -3.4157    4.0056   -2.8334 H   0  0  0  0  0  0  0  0  0  0  0  0
   -1.0458    3.1686   -2.0624 H   0  0  0  0  0  0  0  0  0  0  0  0
    2.4764    3.8269    1.9705 H   0  0  0  0  0  0  0  0  0  0  0  0
    4.9123    4.1277    1.5123 H   0  0  0  0  0  0  0  0  0  0  0  0
    4.7692    1.2869   -1.4667 H   0  0  0  0  0  0  0  0  0  0  0  0
  1  2  2  0  0  0  0
  1 17  1  0  0  0  0
  1 23  1  0  0  0  0
  2  3  1  0  0  0  0
  2 24  1  0  0  0  0
  3  4  2  0  0  0  0
  3 16  1  0  0  0  0
  4  5  1  0  0  0  0
  4 11  1  0  0  0  0
  5  6  1  0  0  0  0
  5 10  2  0  0  0  0
  6  7  2  0  0  0  0
  6 25  1  0  0  0  0
  7  8  1  0  0  0  0
  7 26  1  0  0  0  0
  8  9  2  0  0  0  0
  8 27  1  0  0  0  0
  9 10  1  0  0  0  0
  9 28  1  0  0  0  0
 10 29  1  0  0  0  0
 11 12  2  0  0  0  0
 12 13  1  0  0  0  0
 12 16  1  0  0  0  0
 13 14  1  0  0  0  0
 14 15  2  0  0  0  0
 14 30  1  0  0  0  0
 15 16  1  0  0  0  0
 15 31  1  0  0  0  0
 17 18  1  0  0  0  0
 17 22  2  0  0  0  0
 18 19  2  0  0  0  0
 18 32  1  0  0  0  0
 19 20  1  0  0  0  0
 19 33  1  0  0  0  0
 20 21  2  0  0  0  0
 21 22  1  0  0  0  0
 21 34  1  0  0  0  0
M  END
$$$$
