CHEMBL3696073
 OpenBabel04072215373D

 69 72  0  0  0  0  0  0  0  0999 V2000
    3.3132    4.4162   -2.1951 C   0  0  0  0  0  0  0  0  0  0  0  0
    1.8918    4.8744   -2.3476 C   0  0  0  0  0  0  0  0  0  0  0  0
    1.6225    6.1544   -2.8430 C   0  0  0  0  0  0  0  0  0  0  0  0
    0.3090    6.5657   -3.0235 C   0  0  0  0  0  0  0  0  0  0  0  0
   -0.7419    5.7144   -2.6963 C   0  0  0  0  0  0  0  0  0  0  0  0
   -1.9660    6.1354   -3.0360 F   0  0  0  0  0  0  0  0  0  0  0  0
   -0.5134    4.4509   -2.1308 C   0  0  0  0  0  0  0  0  0  0  0  0
   -1.5365    3.5702   -1.6869 N   0  0  0  0  0  0  0  0  0  0  0  0
   -2.8244    3.9571   -1.3577 C   0  0  0  0  0  0  0  0  0  0  0  0
   -3.2448    5.1084   -1.3629 O   0  0  0  0  0  0  0  0  0  0  0  0
   -3.6084    2.8912   -0.9219 N   0  0  0  0  0  0  0  0  0  0  0  0
   -4.9770    3.1307   -0.6384 C   0  0  0  0  0  0  0  0  0  0  0  0
   -5.8037    3.7402   -1.5857 C   0  0  0  0  0  0  0  0  0  0  0  0
   -7.1386    4.0200   -1.2810 C   0  0  0  0  0  0  0  0  0  0  0  0
   -7.6722    3.7018   -0.0217 C   0  0  0  0  0  0  0  0  0  0  0  0
   -9.1050    3.9380    0.2429 C   0  0  0  0  0  0  0  0  0  0  0  0
   -9.9443    3.7079   -0.7760 N   0  0  0  0  0  0  0  0  0  0  0  0
  -11.4998    3.9244   -0.2933 S   0  0  0  0  0  0  0  0  0  0  0  0
  -11.1295    4.3545    1.3070 C   0  0  0  0  0  0  0  0  0  0  0  0
  -12.1587    4.5904    2.2134 N   0  0  0  0  0  0  0  0  0  0  0  0
  -13.1771    5.4637    1.8719 C   0  0  0  0  0  0  0  0  0  0  0  0
  -13.2110    6.1441    0.8545 O   0  0  0  0  0  0  0  0  0  0  0  0
  -14.1592    5.5313    2.8343 N   0  0  0  0  0  0  0  0  0  0  0  0
  -15.3466    6.3404    2.5910 C   0  0  0  0  0  0  0  0  0  0  0  0
  -16.3258    5.6559    1.6315 C   0  0  0  0  0  0  0  0  0  0  0  0
  -17.5320    6.5471    1.2868 C   0  0  0  0  0  0  0  0  0  0  0  0
  -18.5316    5.8516    0.4549 N   0  0  0  0  0  0  0  0  0  0  0  0
  -18.0509    5.4943   -0.9003 C   0  0  0  0  0  0  0  0  0  0  0  0
  -17.9599    6.6758   -1.8814 C   0  0  0  0  0  0  0  0  0  0  0  0
  -19.2084    7.3722   -1.9832 O   0  0  0  0  0  0  0  0  0  0  0  0
  -19.6466    7.8204   -0.6958 C   0  0  0  0  0  0  0  0  0  0  0  0
  -19.7716    6.6478    0.2931 C   0  0  0  0  0  0  0  0  0  0  0  0
   -9.7528    4.3572    1.4823 C   0  0  0  0  0  0  0  0  0  0  0  0
   -9.1573    4.7755    2.7388 C   0  0  0  0  0  0  0  0  0  0  0  0
   -7.9838    5.4623    2.6608 N   0  0  0  0  0  0  0  0  0  0  0  0
   -9.7065    4.6020    3.8235 O   0  0  0  0  0  0  0  0  0  0  0  0
   -6.8357    3.0824    0.9184 C   0  0  0  0  0  0  0  0  0  0  0  0
   -5.5002    2.7828    0.6065 C   0  0  0  0  0  0  0  0  0  0  0  0
    0.8214    4.0244   -1.9998 C   0  0  0  0  0  0  0  0  0  0  0  0
    4.0172    5.1948   -2.5096 H   0  0  0  0  0  0  0  0  0  0  0  0
    3.4957    3.5345   -2.8173 H   0  0  0  0  0  0  0  0  0  0  0  0
    3.5270    4.1776   -1.1490 H   0  0  0  0  0  0  0  0  0  0  0  0
    2.4315    6.8320   -3.1060 H   0  0  0  0  0  0  0  0  0  0  0  0
    0.0838    7.5452   -3.4365 H   0  0  0  0  0  0  0  0  0  0  0  0
   -1.2672    2.6317   -1.4469 H   0  0  0  0  0  0  0  0  0  0  0  0
   -3.1320    2.2612   -0.2937 H   0  0  0  0  0  0  0  0  0  0  0  0
   -5.4213    3.9964   -2.5718 H   0  0  0  0  0  0  0  0  0  0  0  0
   -7.7633    4.4802   -2.0459 H   0  0  0  0  0  0  0  0  0  0  0  0
  -11.8830    4.6199    3.1901 H   0  0  0  0  0  0  0  0  0  0  0  0
  -14.2410    4.7396    3.4566 H   0  0  0  0  0  0  0  0  0  0  0  0
  -15.0251    7.3038    2.1766 H   0  0  0  0  0  0  0  0  0  0  0  0
  -15.8154    6.5272    3.5612 H   0  0  0  0  0  0  0  0  0  0  0  0
  -16.6718    4.7172    2.0812 H   0  0  0  0  0  0  0  0  0  0  0  0
  -15.7872    5.3881    0.7173 H   0  0  0  0  0  0  0  0  0  0  0  0
  -17.1897    7.4771    0.8187 H   0  0  0  0  0  0  0  0  0  0  0  0
  -18.0106    6.8275    2.2348 H   0  0  0  0  0  0  0  0  0  0  0  0
  -18.7693    4.7712   -1.3091 H   0  0  0  0  0  0  0  0  0  0  0  0
  -17.0966    4.9617   -0.8673 H   0  0  0  0  0  0  0  0  0  0  0  0
  -17.7188    6.2990   -2.8811 H   0  0  0  0  0  0  0  0  0  0  0  0
  -17.1729    7.3826   -1.5964 H   0  0  0  0  0  0  0  0  0  0  0  0
  -20.6262    8.2905   -0.8325 H   0  0  0  0  0  0  0  0  0  0  0  0
  -18.9608    8.5917   -0.3281 H   0  0  0  0  0  0  0  0  0  0  0  0
  -20.5449    5.9660   -0.0861 H   0  0  0  0  0  0  0  0  0  0  0  0
  -20.1344    7.0063    1.2631 H   0  0  0  0  0  0  0  0  0  0  0  0
   -7.6143    5.8112    1.7835 H   0  0  0  0  0  0  0  0  0  0  0  0
   -7.6253    5.8668    3.5169 H   0  0  0  0  0  0  0  0  0  0  0  0
   -7.2084    2.8135    1.9034 H   0  0  0  0  0  0  0  0  0  0  0  0
   -4.8714    2.3268    1.3652 H   0  0  0  0  0  0  0  0  0  0  0  0
    1.0439    3.0404   -1.5959 H   0  0  0  0  0  0  0  0  0  0  0  0
  1  2  1  0  0  0  0
  1 40  1  0  0  0  0
  1 41  1  0  0  0  0
  1 42  1  0  0  0  0
  2  3  1  0  0  0  0
  2 39  2  0  0  0  0
  3  4  2  0  0  0  0
  3 43  1  0  0  0  0
  4  5  1  0  0  0  0
  4 44  1  0  0  0  0
  5  6  1  0  0  0  0
  5  7  2  0  0  0  0
  7  8  1  0  0  0  0
  7 39  1  0  0  0  0
  8  9  1  0  0  0  0
  8 45  1  0  0  0  0
  9 10  2  0  0  0  0
  9 11  1  0  0  0  0
 11 12  1  0  0  0  0
 11 46  1  0  0  0  0
 12 13  1  0  0  0  0
 12 38  2  0  0  0  0
 13 14  2  0  0  0  0
 13 47  1  0  0  0  0
 14 15  1  0  0  0  0
 14 48  1  0  0  0  0
 15 16  1  0  0  0  0
 15 37  2  0  0  0  0
 16 17  2  0  0  0  0
 16 33  1  0  0  0  0
 17 18  1  0  0  0  0
 18 19  1  0  0  0  0
 19 20  1  0  0  0  0
 19 33  2  0  0  0  0
 20 21  1  0  0  0  0
 20 49  1  0  0  0  0
 21 22  2  0  0  0  0
 21 23  1  0  0  0  0
 23 24  1  0  0  0  0
 23 50  1  0  0  0  0
 24 25  1  0  0  0  0
 24 51  1  0  0  0  0
 24 52  1  0  0  0  0
 25 26  1  0  0  0  0
 25 53  1  0  0  0  0
 25 54  1  0  0  0  0
 26 27  1  0  0  0  0
 26 55  1  0  0  0  0
 26 56  1  0  0  0  0
 27 28  1  0  0  0  0
 27 32  1  0  0  0  0
 28 29  1  0  0  0  0
 28 57  1  0  0  0  0
 28 58  1  0  0  0  0
 29 30  1  0  0  0  0
 29 59  1  0  0  0  0
 29 60  1  0  0  0  0
 30 31  1  0  0  0  0
 31 32  1  0  0  0  0
 31 61  1  0  0  0  0
 31 62  1  0  0  0  0
 32 63  1  0  0  0  0
 32 64  1  0  0  0  0
 33 34  1  0  0  0  0
 34 35  1  0  0  0  0
 34 36  2  0  0  0  0
 35 65  1  0  0  0  0
 35 66  1  0  0  0  0
 37 38  1  0  0  0  0
 37 67  1  0  0  0  0
 38 68  1  0  0  0  0
 39 69  1  0  0  0  0
M  END
$$$$
