CHEMBL200765
 OpenBabel04072215363D

 50 52  0  0  0  0  0  0  0  0999 V2000
   11.6016   -7.7894   -0.0976 C   0  0  0  0  0  0  0  0  0  0  0  0
   11.1111   -6.6609    0.7866 C   0  0  0  0  0  0  0  0  0  0  0  0
    9.8218   -6.2330    0.3331 O   0  0  0  0  0  0  0  0  0  0  0  0
    9.5139   -4.9069    0.6414 C   0  0  0  0  0  0  0  0  0  0  0  0
    8.7772   -4.1580   -0.1951 C   0  0  0  0  0  0  0  0  0  0  0  0
    8.1190   -4.8399   -1.6487 Cl  0  0  0  0  0  0  0  0  0  0  0  0
    8.4497   -2.7197    0.0584 C   0  0  0  0  0  0  0  0  0  0  0  0
    7.7180   -2.0788   -0.6877 O   0  0  0  0  0  0  0  0  0  0  0  0
    9.0179   -2.1128    1.3134 C   0  0  0  0  0  0  0  0  0  0  0  0
    8.7261   -0.7910    1.6370 N   0  0  0  0  0  0  0  0  0  0  0  0
    9.5005    0.2906    1.1065 C   0  0  0  0  0  0  0  0  0  0  0  0
   10.2172    0.1059   -0.0142 N   0  0  0  0  0  0  0  0  0  0  0  0
   10.8524    1.1835   -0.4907 C   0  0  0  0  0  0  0  0  0  0  0  0
   10.8552    2.4110    0.0518 N   0  0  0  0  0  0  0  0  0  0  0  0
   10.1632    2.5772    1.1885 C   0  0  0  0  0  0  0  0  0  0  0  0
   10.1442    3.8156    1.8330 C   0  0  0  0  0  0  0  0  0  0  0  0
    9.5229    4.0530    3.0878 C   0  0  0  0  0  0  0  0  0  0  0  0
    9.7636    5.3429    3.4935 O   0  0  0  0  0  0  0  0  0  0  0  0
    9.6364    5.6075    4.8706 C   0  0  0  0  0  0  0  0  0  0  0  0
   10.3926    6.8359    5.3503 C   0  0  0  0  0  0  0  0  0  0  0  0
   10.1573    6.8754    6.7618 O   0  0  0  0  0  0  0  0  0  0  0  0
   10.8230    7.9353    7.4184 C   0  0  0  0  0  0  0  0  0  0  0  0
    8.8594    2.9910    3.7075 C   0  0  0  0  0  0  0  0  0  0  0  0
    8.3496    2.7875    4.9545 O   0  0  0  0  0  0  0  0  0  0  0  0
    7.5611    3.7022    5.6872 C   0  0  0  0  0  0  0  0  0  0  0  0
    8.8163    1.7679    3.0188 C   0  0  0  0  0  0  0  0  0  0  0  0
    9.4575    1.5353    1.7773 C   0  0  0  0  0  0  0  0  0  0  0  0
    9.6814   -2.8934    2.1697 C   0  0  0  0  0  0  0  0  0  0  0  0
    9.9490   -4.3105    1.9327 C   0  0  0  0  0  0  0  0  0  0  0  0
   10.4962   -4.9508    2.8222 O   0  0  0  0  0  0  0  0  0  0  0  0
   12.6173   -8.0800    0.1875 H   0  0  0  0  0  0  0  0  0  0  0  0
   11.5994   -7.4872   -1.1493 H   0  0  0  0  0  0  0  0  0  0  0  0
   10.9481   -8.6622   -0.0066 H   0  0  0  0  0  0  0  0  0  0  0  0
   11.8382   -5.8410    0.7357 H   0  0  0  0  0  0  0  0  0  0  0  0
   11.0316   -7.0299    1.8145 H   0  0  0  0  0  0  0  0  0  0  0  0
    8.7661   -0.6940    2.6453 H   0  0  0  0  0  0  0  0  0  0  0  0
   11.4201    1.0541   -1.4076 H   0  0  0  0  0  0  0  0  0  0  0  0
   10.6891    4.6339    1.3604 H   0  0  0  0  0  0  0  0  0  0  0  0
   10.0047    4.7610    5.4585 H   0  0  0  0  0  0  0  0  0  0  0  0
    8.5851    5.8148    5.0765 H   0  0  0  0  0  0  0  0  0  0  0  0
   10.0094    7.7444    4.8712 H   0  0  0  0  0  0  0  0  0  0  0  0
   11.4620    6.7471    5.1319 H   0  0  0  0  0  0  0  0  0  0  0  0
   10.5998    7.8528    8.4863 H   0  0  0  0  0  0  0  0  0  0  0  0
   10.4552    8.8988    7.0577 H   0  0  0  0  0  0  0  0  0  0  0  0
   11.9040    7.8539    7.2810 H   0  0  0  0  0  0  0  0  0  0  0  0
    6.8400    3.1264    6.2777 H   0  0  0  0  0  0  0  0  0  0  0  0
    7.0016    4.4041    5.0654 H   0  0  0  0  0  0  0  0  0  0  0  0
    8.1888    4.2006    6.4313 H   0  0  0  0  0  0  0  0  0  0  0  0
    8.2848    0.9605    3.5170 H   0  0  0  0  0  0  0  0  0  0  0  0
   10.0687   -2.5108    3.1074 H   0  0  0  0  0  0  0  0  0  0  0  0
  1  2  1  0  0  0  0
  1 31  1  0  0  0  0
  1 32  1  0  0  0  0
  1 33  1  0  0  0  0
  2  3  1  0  0  0  0
  2 34  1  0  0  0  0
  2 35  1  0  0  0  0
  3  4  1  0  0  0  0
  4  5  2  0  0  0  0
  4 29  1  0  0  0  0
  5  6  1  0  0  0  0
  5  7  1  0  0  0  0
  7  8  2  0  0  0  0
  7  9  1  0  0  0  0
  9 10  1  0  0  0  0
  9 28  2  0  0  0  0
 10 11  1  0  0  0  0
 10 36  1  0  0  0  0
 11 12  1  0  0  0  0
 11 27  2  0  0  0  0
 12 13  2  0  0  0  0
 13 14  1  0  0  0  0
 13 37  1  0  0  0  0
 14 15  2  0  0  0  0
 15 16  1  0  0  0  0
 15 27  1  0  0  0  0
 16 17  2  0  0  0  0
 16 38  1  0  0  0  0
 17 18  1  0  0  0  0
 17 23  1  0  0  0  0
 18 19  1  0  0  0  0
 19 20  1  0  0  0  0
 19 39  1  0  0  0  0
 19 40  1  0  0  0  0
 20 21  1  0  0  0  0
 20 41  1  0  0  0  0
 20 42  1  0  0  0  0
 21 22  1  0  0  0  0
 22 43  1  0  0  0  0
 22 44  1  0  0  0  0
 22 45  1  0  0  0  0
 23 24  1  0  0  0  0
 23 26  2  0  0  0  0
 24 25  1  0  0  0  0
 25 46  1  0  0  0  0
 25 47  1  0  0  0  0
 25 48  1  0  0  0  0
 26 27  1  0  0  0  0
 26 49  1  0  0  0  0
 28 29  1  0  0  0  0
 28 50  1  0  0  0  0
 29 30  2  0  0  0  0
M  END
$$$$
