CHEMBL1987910
 OpenBabel04072215363D

 45 48  0  0  0  0  0  0  0  0999 V2000
    1.2358   -0.3355   -1.7547 N   0  0  0  0  0  0  0  0  0  0  0  0
    2.5941   -0.3511   -1.4570 C   0  0  0  0  0  0  0  0  0  0  0  0
    3.2713    0.7232   -1.9202 N   0  0  0  0  0  0  0  0  0  0  0  0
    4.5768    0.8661   -1.6514 C   0  0  0  0  0  0  0  0  0  0  0  0
    5.3133   -0.0259   -0.9094 C   0  0  0  0  0  0  0  0  0  0  0  0
    4.6249   -1.1531   -0.4476 C   0  0  0  0  0  0  0  0  0  0  0  0
    5.3185   -2.4116    0.4906 S   0  0  0  0  0  0  0  0  0  0  0  0
    3.8546   -3.2601    0.5464 C   0  0  0  0  0  0  0  0  0  0  0  0
    2.8143   -2.6139   -0.1012 C   0  0  0  0  0  0  0  0  0  0  0  0
    1.4783   -3.2234   -0.0582 C   0  0  0  0  0  0  0  0  0  0  0  0
    1.0425   -3.8217    1.1274 C   0  0  0  0  0  0  0  0  0  0  0  0
   -0.2104   -4.4257    1.2120 C   0  0  0  0  0  0  0  0  0  0  0  0
   -1.0944   -4.4131    0.1320 C   0  0  0  0  0  0  0  0  0  0  0  0
   -2.3854   -4.9925    0.1964 N   0  0  0  0  0  0  0  0  0  0  0  0
   -2.9552   -5.5453    1.3253 C   0  0  0  0  0  0  0  0  0  0  0  0
   -2.4489   -5.5432    2.4442 O   0  0  0  0  0  0  0  0  0  0  0  0
   -4.1685   -6.1551    1.0654 N   0  0  0  0  0  0  0  0  0  0  0  0
   -4.9348   -6.7135    2.1262 C   0  0  0  0  0  0  0  0  0  0  0  0
   -5.0665   -5.9972    3.3302 C   0  0  0  0  0  0  0  0  0  0  0  0
   -5.7650   -6.5167    4.4152 C   0  0  0  0  0  0  0  0  0  0  0  0
   -6.3667   -7.7622    4.3076 C   0  0  0  0  0  0  0  0  0  0  0  0
   -6.2657   -8.4791    3.1131 C   0  0  0  0  0  0  0  0  0  0  0  0
   -5.5536   -7.9662    2.0074 C   0  0  0  0  0  0  0  0  0  0  0  0
   -5.4246   -8.8411    0.7906 C   0  0  0  0  0  0  0  0  0  0  0  0
   -4.7439   -8.2627   -0.2443 F   0  0  0  0  0  0  0  0  0  0  0  0
   -4.7743  -10.0101    1.0488 F   0  0  0  0  0  0  0  0  0  0  0  0
   -6.6337   -9.1950    0.2728 F   0  0  0  0  0  0  0  0  0  0  0  0
   -0.6727   -3.8158   -1.0556 C   0  0  0  0  0  0  0  0  0  0  0  0
    0.6154   -3.2571   -1.1597 C   0  0  0  0  0  0  0  0  0  0  0  0
    3.2613   -1.3595   -0.7076 C   0  0  0  0  0  0  0  0  0  0  0  0
    0.9991    0.5880   -2.1030 H   0  0  0  0  0  0  0  0  0  0  0  0
    0.6625   -0.6579   -0.9852 H   0  0  0  0  0  0  0  0  0  0  0  0
    5.0373    1.7626   -2.0582 H   0  0  0  0  0  0  0  0  0  0  0  0
    6.3633    0.1341   -0.6977 H   0  0  0  0  0  0  0  0  0  0  0  0
    3.8259   -4.2028    1.0777 H   0  0  0  0  0  0  0  0  0  0  0  0
    1.6671   -3.8385    2.0184 H   0  0  0  0  0  0  0  0  0  0  0  0
   -0.4447   -4.9002    2.1572 H   0  0  0  0  0  0  0  0  0  0  0  0
   -2.9792   -4.8899   -0.6142 H   0  0  0  0  0  0  0  0  0  0  0  0
   -4.2066   -6.6254    0.1664 H   0  0  0  0  0  0  0  0  0  0  0  0
   -4.5977   -5.0185    3.4445 H   0  0  0  0  0  0  0  0  0  0  0  0
   -5.8240   -5.9553    5.3411 H   0  0  0  0  0  0  0  0  0  0  0  0
   -6.9024   -8.1819    5.1563 H   0  0  0  0  0  0  0  0  0  0  0  0
   -6.7248   -9.4654    3.0547 H   0  0  0  0  0  0  0  0  0  0  0  0
   -1.3253   -3.7778   -1.9244 H   0  0  0  0  0  0  0  0  0  0  0  0
    0.9256   -2.8417   -2.1166 H   0  0  0  0  0  0  0  0  0  0  0  0
  1  2  1  0  0  0  0
  1 31  1  0  0  0  0
  1 32  1  0  0  0  0
  2  3  1  0  0  0  0
  2 30  2  0  0  0  0
  3  4  2  0  0  0  0
  4  5  1  0  0  0  0
  4 33  1  0  0  0  0
  5  6  2  0  0  0  0
  5 34  1  0  0  0  0
  6  7  1  0  0  0  0
  6 30  1  0  0  0  0
  7  8  1  0  0  0  0
  8  9  2  0  0  0  0
  8 35  1  0  0  0  0
  9 10  1  0  0  0  0
  9 30  1  0  0  0  0
 10 11  1  0  0  0  0
 10 29  2  0  0  0  0
 11 12  2  0  0  0  0
 11 36  1  0  0  0  0
 12 13  1  0  0  0  0
 12 37  1  0  0  0  0
 13 14  1  0  0  0  0
 13 28  2  0  0  0  0
 14 15  1  0  0  0  0
 14 38  1  0  0  0  0
 15 16  2  0  0  0  0
 15 17  1  0  0  0  0
 17 18  1  0  0  0  0
 17 39  1  0  0  0  0
 18 19  1  0  0  0  0
 18 23  2  0  0  0  0
 19 20  2  0  0  0  0
 19 40  1  0  0  0  0
 20 21  1  0  0  0  0
 20 41  1  0  0  0  0
 21 22  2  0  0  0  0
 21 42  1  0  0  0  0
 22 23  1  0  0  0  0
 22 43  1  0  0  0  0
 23 24  1  0  0  0  0
 24 25  1  0  0  0  0
 24 26  1  0  0  0  0
 24 27  1  0  0  0  0
 28 29  1  0  0  0  0
 28 44  1  0  0  0  0
 29 45  1  0  0  0  0
M  END
$$$$
