CHEMBL3656066
 OpenBabel04072215373D

 80 83  0  0  1  0  0  0  0  0999 V2000
   -5.3217  -15.5698   -0.2244 C   0  0  0  0  0  0  0  0  0  0  0  0
   -5.8452  -14.3084    0.3988 C   0  0  0  0  0  0  0  0  0  0  0  0
   -6.0030  -14.2444    1.7868 C   0  0  0  0  0  0  0  0  0  0  0  0
   -6.4848  -13.0862    2.3786 C   0  0  0  0  0  0  0  0  0  0  0  0
   -6.8139  -11.9844    1.5942 C   0  0  0  0  0  0  0  0  0  0  0  0
   -6.6588  -12.0079    0.2016 C   0  0  0  0  0  0  0  0  0  0  0  0
   -6.9903  -10.8991   -0.6206 N   0  0  0  0  0  0  0  0  0  0  0  0
   -7.3480   -9.6408   -0.1738 C   0  0  0  0  0  0  0  0  0  0  0  0
   -7.3261   -9.2740    0.9994 O   0  0  0  0  0  0  0  0  0  0  0  0
   -7.7848   -8.8128   -1.1977 N   0  0  0  0  0  0  0  0  0  0  0  0
   -8.2375   -7.4996   -0.9028 C   0  0  0  0  0  0  0  0  0  0  0  0
   -7.5368   -6.6363   -0.0524 C   0  0  0  0  0  0  0  0  0  0  0  0
   -8.0361   -5.3579    0.2211 C   0  0  0  0  0  0  0  0  0  0  0  0
   -9.2412   -4.9366   -0.3442 C   0  0  0  0  0  0  0  0  0  0  0  0
   -9.6566   -3.6611   -0.0281 O   0  0  0  0  0  0  0  0  0  0  0  0
  -10.3617   -2.9265   -0.9579 C   0  0  0  0  0  0  0  0  0  0  0  0
  -10.1849   -3.0239   -2.3322 C   0  0  0  0  0  0  0  0  0  0  0  0
  -10.9861   -2.2510   -3.1523 C   0  0  0  0  0  0  0  0  0  0  0  0
  -11.8879   -1.3607   -2.6899 N   0  0  0  0  0  0  0  0  0  0  0  0
  -11.9928   -1.2350   -1.3461 C   0  0  0  0  0  0  0  0  0  0  0  0
  -12.9076   -0.1794   -0.9235 C   0  0  0  0  0  0  0  0  0  0  0  0
  -13.2610    0.3010    0.3243 C   0  0  0  0  0  0  0  0  0  0  0  0
  -14.1233    1.4274    0.1543 C   0  0  0  0  0  0  0  0  0  0  0  0
  -14.7106    2.3228    1.1408 C   0  0  0  0  0  0  0  0  0  0  0  0
  -15.3372    3.3286    0.8278 O   0  0  0  0  0  0  0  0  0  0  0  0
  -14.5079    1.9570    2.4512 N   0  0  0  0  0  0  0  0  0  0  0  0
  -15.0036    2.7640    3.5583 C   0  0  1  0  0  0  0  0  0  0  0  0
  -16.5440    2.7624    3.6095 C   0  0  0  0  0  0  0  0  0  0  0  0
  -17.1651    3.5513    4.7600 C   0  0  0  0  0  0  0  0  0  0  0  0
  -16.7203    4.9890    4.7460 C   0  0  0  0  0  0  0  0  0  0  0  0
  -15.5398    5.2994    4.8673 O   0  0  0  0  0  0  0  0  0  0  0  0
  -17.7727    5.8350    4.6007 O   0  0  0  0  0  0  0  0  0  0  0  0
  -17.5466    7.2698    4.5768 C   0  0  0  0  0  0  0  0  0  0  0  0
  -16.7680    7.6689    3.3181 C   0  0  0  0  0  0  0  0  0  0  0  0
  -18.9371    7.9263    4.5216 C   0  0  0  0  0  0  0  0  0  0  0  0
  -16.8593    7.7388    5.8650 C   0  0  0  0  0  0  0  0  0  0  0  0
  -14.4167    2.1734    4.8440 C   0  0  0  0  0  0  0  0  0  0  0  0
  -14.4755    0.9823    5.1372 O   0  0  0  0  0  0  0  0  0  0  0  0
  -13.7821    3.0761    5.6328 O   0  0  0  0  0  0  0  0  0  0  0  0
  -14.3100    1.5549   -1.2119 C   0  0  0  0  0  0  0  0  0  0  0  0
  -13.5776    0.5911   -1.8445 N   0  0  0  0  0  0  0  0  0  0  0  0
  -11.2606   -1.9963   -0.4483 C   0  0  0  0  0  0  0  0  0  0  0  0
   -9.9773   -5.8226   -1.1374 C   0  0  0  0  0  0  0  0  0  0  0  0
   -9.4480   -7.0704   -1.4468 C   0  0  0  0  0  0  0  0  0  0  0  0
  -10.1500   -7.8946   -2.2401 F   0  0  0  0  0  0  0  0  0  0  0  0
   -6.1749  -13.1857   -0.3875 C   0  0  0  0  0  0  0  0  0  0  0  0
   -5.1436  -16.3412    0.5343 H   0  0  0  0  0  0  0  0  0  0  0  0
   -4.3704  -15.3785   -0.7296 H   0  0  0  0  0  0  0  0  0  0  0  0
   -6.0455  -15.9732   -0.9386 H   0  0  0  0  0  0  0  0  0  0  0  0
   -5.7547  -15.0951    2.4170 H   0  0  0  0  0  0  0  0  0  0  0  0
   -6.6099  -13.0296    3.4570 H   0  0  0  0  0  0  0  0  0  0  0  0
   -7.1964  -11.1157    2.1170 H   0  0  0  0  0  0  0  0  0  0  0  0
   -6.8295  -11.0039   -1.6171 H   0  0  0  0  0  0  0  0  0  0  0  0
   -8.3028   -9.2872   -1.9275 H   0  0  0  0  0  0  0  0  0  0  0  0
   -6.6009   -6.9477    0.4071 H   0  0  0  0  0  0  0  0  0  0  0  0
   -7.4828   -4.6964    0.8862 H   0  0  0  0  0  0  0  0  0  0  0  0
   -9.4557   -3.6907   -2.7781 H   0  0  0  0  0  0  0  0  0  0  0  0
  -10.9235   -2.3308   -4.2325 H   0  0  0  0  0  0  0  0  0  0  0  0
  -12.8989   -0.0961    1.2630 H   0  0  0  0  0  0  0  0  0  0  0  0
  -13.9742    1.1263    2.6704 H   0  0  0  0  0  0  0  0  0  0  0  0
  -14.6036    3.7655    3.3833 H   0  0  0  0  0  0  0  0  0  0  0  0
  -16.9035    1.7269    3.6658 H   0  0  0  0  0  0  0  0  0  0  0  0
  -16.9422    3.1689    2.6721 H   0  0  0  0  0  0  0  0  0  0  0  0
  -16.8964    3.1271    5.7332 H   0  0  0  0  0  0  0  0  0  0  0  0
  -18.2574    3.4985    4.6850 H   0  0  0  0  0  0  0  0  0  0  0  0
  -17.2893    7.3274    2.4156 H   0  0  0  0  0  0  0  0  0  0  0  0
  -15.7735    7.2148    3.2891 H   0  0  0  0  0  0  0  0  0  0  0  0
  -16.6419    8.7547    3.2532 H   0  0  0  0  0  0  0  0  0  0  0  0
  -19.4867    7.6249    3.6229 H   0  0  0  0  0  0  0  0  0  0  0  0
  -18.8634    9.0202    4.5275 H   0  0  0  0  0  0  0  0  0  0  0  0
  -19.5491    7.6206    5.3781 H   0  0  0  0  0  0  0  0  0  0  0  0
  -15.8500    7.3341    5.9722 H   0  0  0  0  0  0  0  0  0  0  0  0
  -17.4237    7.4024    6.7425 H   0  0  0  0  0  0  0  0  0  0  0  0
  -16.7744    8.8292    5.8990 H   0  0  0  0  0  0  0  0  0  0  0  0
  -13.8258    3.9992    5.3010 H   0  0  0  0  0  0  0  0  0  0  0  0
  -14.8962    2.2685   -1.7771 H   0  0  0  0  0  0  0  0  0  0  0  0
  -13.4957    0.4543   -2.8445 H   0  0  0  0  0  0  0  0  0  0  0  0
  -11.3664   -1.8719    0.6230 H   0  0  0  0  0  0  0  0  0  0  0  0
  -10.9556   -5.5601   -1.5226 H   0  0  0  0  0  0  0  0  0  0  0  0
   -6.0450  -13.2456   -1.4674 H   0  0  0  0  0  0  0  0  0  0  0  0
  1  2  1  0  0  0  0
  1 47  1  0  0  0  0
  1 48  1  0  0  0  0
  1 49  1  0  0  0  0
  2  3  1  0  0  0  0
  2 46  2  0  0  0  0
  3  4  2  0  0  0  0
  3 50  1  0  0  0  0
  4  5  1  0  0  0  0
  4 51  1  0  0  0  0
  5  6  2  0  0  0  0
  5 52  1  0  0  0  0
  6  7  1  0  0  0  0
  6 46  1  0  0  0  0
  7  8  1  0  0  0  0
  7 53  1  0  0  0  0
  8  9  2  0  0  0  0
  8 10  1  0  0  0  0
 10 11  1  0  0  0  0
 10 54  1  0  0  0  0
 11 12  1  0  0  0  0
 11 44  2  0  0  0  0
 12 13  2  0  0  0  0
 12 55  1  0  0  0  0
 13 14  1  0  0  0  0
 13 56  1  0  0  0  0
 14 15  1  0  0  0  0
 14 43  2  0  0  0  0
 15 16  1  0  0  0  0
 16 17  1  0  0  0  0
 16 42  2  0  0  0  0
 17 18  2  0  0  0  0
 17 57  1  0  0  0  0
 18 19  1  0  0  0  0
 18 58  1  0  0  0  0
 19 20  2  0  0  0  0
 20 21  1  0  0  0  0
 20 42  1  0  0  0  0
 21 22  2  0  0  0  0
 21 41  1  0  0  0  0
 22 23  1  0  0  0  0
 22 59  1  0  0  0  0
 23 24  1  0  0  0  0
 23 40  2  0  0  0  0
 24 25  2  0  0  0  0
 24 26  1  0  0  0  0
 26 27  1  0  0  0  0
 26 60  1  0  0  0  0
 27 28  1  0  0  0  0
 27 37  1  0  0  0  0
 27 61  1  6  0  0  0
 28 29  1  0  0  0  0
 28 62  1  0  0  0  0
 28 63  1  0  0  0  0
 29 30  1  0  0  0  0
 29 64  1  0  0  0  0
 29 65  1  0  0  0  0
 30 31  2  0  0  0  0
 30 32  1  0  0  0  0
 32 33  1  0  0  0  0
 33 34  1  0  0  0  0
 33 35  1  0  0  0  0
 33 36  1  0  0  0  0
 34 66  1  0  0  0  0
 34 67  1  0  0  0  0
 34 68  1  0  0  0  0
 35 69  1  0  0  0  0
 35 70  1  0  0  0  0
 35 71  1  0  0  0  0
 36 72  1  0  0  0  0
 36 73  1  0  0  0  0
 36 74  1  0  0  0  0
 37 38  2  0  0  0  0
 37 39  1  0  0  0  0
 39 75  1  0  0  0  0
 40 41  1  0  0  0  0
 40 76  1  0  0  0  0
 41 77  1  0  0  0  0
 42 78  1  0  0  0  0
 43 44  1  0  0  0  0
 43 79  1  0  0  0  0
 44 45  1  0  0  0  0
 46 80  1  0  0  0  0
M  END
$$$$
