CHEMBL518803
 OpenBabel04072215383D

 38 42  0  0  0  0  0  0  0  0999 V2000
    2.5616   -0.4055    0.6077 C   0  0  0  0  0  0  0  0  0  0  0  0
    2.4039    0.8232   -0.0288 C   0  0  0  0  0  0  0  0  0  0  0  0
    1.1425    1.2575   -0.4451 C   0  0  0  0  0  0  0  0  0  0  0  0
    0.0427    0.4189   -0.2045 C   0  0  0  0  0  0  0  0  0  0  0  0
   -1.6069    0.6620   -0.6045 S   0  0  0  0  0  0  0  0  0  0  0  0
   -2.0015   -0.8888    0.0370 C   0  0  0  0  0  0  0  0  0  0  0  0
   -3.3671   -1.4242   -0.0633 C   0  0  0  0  0  0  0  0  0  0  0  0
   -4.2076   -1.0885   -1.1326 C   0  0  0  0  0  0  0  0  0  0  0  0
   -5.4724   -1.6644   -1.2487 C   0  0  0  0  0  0  0  0  0  0  0  0
   -5.9298   -2.6052   -0.3186 C   0  0  0  0  0  0  0  0  0  0  0  0
   -7.2034   -3.2015   -0.4387 N   0  0  0  0  0  0  0  0  0  0  0  0
   -7.8304   -3.4656   -1.6720 C   0  0  0  0  0  0  0  0  0  0  0  0
   -7.0633   -3.7645   -2.7563 N   0  0  0  0  0  0  0  0  0  0  0  0
   -7.6481   -3.9513   -3.9501 C   0  0  0  0  0  0  0  0  0  0  0  0
   -8.9532   -3.8791   -4.2429 N   0  0  0  0  0  0  0  0  0  0  0  0
   -9.6828   -3.6107   -3.1514 C   0  0  0  0  0  0  0  0  0  0  0  0
  -11.0416   -3.4639   -3.1523 N   0  0  0  0  0  0  0  0  0  0  0  0
  -11.4789   -3.1960   -1.8806 C   0  0  0  0  0  0  0  0  0  0  0  0
  -10.3741   -3.1653   -1.0533 C   0  0  0  0  0  0  0  0  0  0  0  0
   -9.2231   -3.4118   -1.8573 C   0  0  0  0  0  0  0  0  0  0  0  0
   -5.1130   -2.9137    0.7718 C   0  0  0  0  0  0  0  0  0  0  0  0
   -3.8369   -2.3443    0.8874 C   0  0  0  0  0  0  0  0  0  0  0  0
   -0.9976   -1.5284    0.5999 N   0  0  0  0  0  0  0  0  0  0  0  0
    0.1739   -0.8132    0.4361 C   0  0  0  0  0  0  0  0  0  0  0  0
    1.4559   -1.2277    0.8470 C   0  0  0  0  0  0  0  0  0  0  0  0
    3.5509   -0.7316    0.9200 H   0  0  0  0  0  0  0  0  0  0  0  0
    3.2721    1.4530   -0.2081 H   0  0  0  0  0  0  0  0  0  0  0  0
    1.0188    2.2115   -0.9472 H   0  0  0  0  0  0  0  0  0  0  0  0
   -3.8866   -0.4075   -1.9133 H   0  0  0  0  0  0  0  0  0  0  0  0
   -6.0843   -1.3906   -2.1038 H   0  0  0  0  0  0  0  0  0  0  0  0
   -7.8506   -2.8464    0.2550 H   0  0  0  0  0  0  0  0  0  0  0  0
   -6.9777   -4.1710   -4.7747 H   0  0  0  0  0  0  0  0  0  0  0  0
  -11.6092   -3.5329   -3.9845 H   0  0  0  0  0  0  0  0  0  0  0  0
  -12.5314   -3.0450   -1.6797 H   0  0  0  0  0  0  0  0  0  0  0  0
  -10.3966   -2.9736    0.0114 H   0  0  0  0  0  0  0  0  0  0  0  0
   -5.4390   -3.6453    1.5065 H   0  0  0  0  0  0  0  0  0  0  0  0
   -3.1967   -2.6432    1.7162 H   0  0  0  0  0  0  0  0  0  0  0  0
    1.5730   -2.1898    1.3353 H   0  0  0  0  0  0  0  0  0  0  0  0
  1  2  1  0  0  0  0
  1 25  2  0  0  0  0
  1 26  1  0  0  0  0
  2  3  2  0  0  0  0
  2 27  1  0  0  0  0
  3  4  1  0  0  0  0
  3 28  1  0  0  0  0
  4  5  1  0  0  0  0
  4 24  2  0  0  0  0
  5  6  1  0  0  0  0
  6  7  1  0  0  0  0
  6 23  2  0  0  0  0
  7  8  1  0  0  0  0
  7 22  2  0  0  0  0
  8  9  2  0  0  0  0
  8 29  1  0  0  0  0
  9 10  1  0  0  0  0
  9 30  1  0  0  0  0
 10 11  1  0  0  0  0
 10 21  2  0  0  0  0
 11 12  1  0  0  0  0
 11 31  1  0  0  0  0
 12 13  1  0  0  0  0
 12 20  2  0  0  0  0
 13 14  2  0  0  0  0
 14 15  1  0  0  0  0
 14 32  1  0  0  0  0
 15 16  2  0  0  0  0
 16 17  1  0  0  0  0
 16 20  1  0  0  0  0
 17 18  1  0  0  0  0
 17 33  1  0  0  0  0
 18 19  2  0  0  0  0
 18 34  1  0  0  0  0
 19 20  1  0  0  0  0
 19 35  1  0  0  0  0
 21 22  1  0  0  0  0
 21 36  1  0  0  0  0
 22 37  1  0  0  0  0
 23 24  1  0  0  0  0
 24 25  1  0  0  0  0
 25 38  1  0  0  0  0
M  END
$$$$
