CHEMBL3633770
 OpenBabel04072215373D

 44 46  0  0  0  0  0  0  0  0999 V2000
    2.5205   -0.1939   -1.4694 C   0  0  0  0  0  0  0  0  0  0  0  0
    2.4330    0.0649   -0.0725 O   0  0  0  0  0  0  0  0  0  0  0  0
    3.1158    1.1194    0.4624 C   0  0  0  0  0  0  0  0  0  0  0  0
    4.2057    1.7203   -0.1762 C   0  0  0  0  0  0  0  0  0  0  0  0
    4.8339    2.8461    0.3278 C   0  0  0  0  0  0  0  0  0  0  0  0
    5.8220    3.3769   -0.3962 N   0  0  0  0  0  0  0  0  0  0  0  0
    6.4013    4.4729    0.0937 C   0  0  0  0  0  0  0  0  0  0  0  0
    6.1006    5.0593    1.2509 N   0  0  0  0  0  0  0  0  0  0  0  0
    5.1142    4.5050    1.9848 C   0  0  0  0  0  0  0  0  0  0  0  0
    4.8191    5.0842    3.2503 N   0  0  0  0  0  0  0  0  0  0  0  0
    5.3359    6.3436    3.6597 C   0  0  0  0  0  0  0  0  0  0  0  0
    5.2255    7.4533    2.8054 C   0  0  0  0  0  0  0  0  0  0  0  0
    5.7934    8.6765    3.1519 C   0  0  0  0  0  0  0  0  0  0  0  0
    5.6939   10.0008    2.0589 Cl  0  0  0  0  0  0  0  0  0  0  0  0
    6.4541    8.8274    4.3681 C   0  0  0  0  0  0  0  0  0  0  0  0
    6.5338    7.7487    5.2516 C   0  0  0  0  0  0  0  0  0  0  0  0
    5.9728    6.5163    4.9015 C   0  0  0  0  0  0  0  0  0  0  0  0
    6.1178    5.1976    6.0098 Cl  0  0  0  0  0  0  0  0  0  0  0  0
    4.4025    3.3746    1.5488 C   0  0  0  0  0  0  0  0  0  0  0  0
    3.3193    2.7592    2.2276 C   0  0  0  0  0  0  0  0  0  0  0  0
    2.6992    1.6185    1.7072 C   0  0  0  0  0  0  0  0  0  0  0  0
    1.6758    1.1160    2.4820 O   0  0  0  0  0  0  0  0  0  0  0  0
    1.6795   -0.3129    2.5856 C   0  0  0  0  0  0  0  0  0  0  0  0
    0.7906   -0.7681    3.7367 C   0  0  0  0  0  0  0  0  0  0  0  0
    0.7999   -2.2810    3.7939 C   0  0  0  0  0  0  0  0  0  0  0  0
    1.4469   -2.9960    3.0290 O   0  0  0  0  0  0  0  0  0  0  0  0
    0.0175   -2.8274    4.7817 N   0  0  0  0  0  0  0  0  0  0  0  0
   -0.0681   -4.2400    4.7528 O   0  0  0  0  0  0  0  0  0  0  0  0
    3.0962   -1.1107   -1.6270 H   0  0  0  0  0  0  0  0  0  0  0  0
    2.9403    0.6180   -2.0688 H   0  0  0  0  0  0  0  0  0  0  0  0
    1.5041   -0.3597   -1.8385 H   0  0  0  0  0  0  0  0  0  0  0  0
    4.6045    1.3196   -1.1030 H   0  0  0  0  0  0  0  0  0  0  0  0
    7.1883    4.9254   -0.4992 H   0  0  0  0  0  0  0  0  0  0  0  0
    4.9758    4.3813    3.9720 H   0  0  0  0  0  0  0  0  0  0  0  0
    4.7169    7.3466    1.8498 H   0  0  0  0  0  0  0  0  0  0  0  0
    6.9109    9.7780    4.6303 H   0  0  0  0  0  0  0  0  0  0  0  0
    7.0484    7.8712    6.2010 H   0  0  0  0  0  0  0  0  0  0  0  0
    2.9514    3.1761    3.1626 H   0  0  0  0  0  0  0  0  0  0  0  0
    2.7024   -0.6758    2.7522 H   0  0  0  0  0  0  0  0  0  0  0  0
    1.2711   -0.7527    1.6715 H   0  0  0  0  0  0  0  0  0  0  0  0
   -0.2373   -0.4164    3.5852 H   0  0  0  0  0  0  0  0  0  0  0  0
    1.1426   -0.3636    4.6904 H   0  0  0  0  0  0  0  0  0  0  0  0
   -0.7401   -2.3386    5.2470 H   0  0  0  0  0  0  0  0  0  0  0  0
    0.5196   -4.4732    4.0035 H   0  0  0  0  0  0  0  0  0  0  0  0
  1  2  1  0  0  0  0
  1 29  1  0  0  0  0
  1 30  1  0  0  0  0
  1 31  1  0  0  0  0
  2  3  1  0  0  0  0
  3  4  1  0  0  0  0
  3 21  2  0  0  0  0
  4  5  2  0  0  0  0
  4 32  1  0  0  0  0
  5  6  1  0  0  0  0
  5 19  1  0  0  0  0
  6  7  2  0  0  0  0
  7  8  1  0  0  0  0
  7 33  1  0  0  0  0
  8  9  2  0  0  0  0
  9 10  1  0  0  0  0
  9 19  1  0  0  0  0
 10 11  1  0  0  0  0
 10 34  1  0  0  0  0
 11 12  1  0  0  0  0
 11 17  2  0  0  0  0
 12 13  2  0  0  0  0
 12 35  1  0  0  0  0
 13 14  1  0  0  0  0
 13 15  1  0  0  0  0
 15 16  2  0  0  0  0
 15 36  1  0  0  0  0
 16 17  1  0  0  0  0
 16 37  1  0  0  0  0
 17 18  1  0  0  0  0
 19 20  2  0  0  0  0
 20 21  1  0  0  0  0
 20 38  1  0  0  0  0
 21 22  1  0  0  0  0
 22 23  1  0  0  0  0
 23 24  1  0  0  0  0
 23 39  1  0  0  0  0
 23 40  1  0  0  0  0
 24 25  1  0  0  0  0
 24 41  1  0  0  0  0
 24 42  1  0  0  0  0
 25 26  2  0  0  0  0
 25 27  1  0  0  0  0
 27 28  1  0  0  0  0
 27 43  1  0  0  0  0
 28 44  1  0  0  0  0
M  END
$$$$
