CHEMBL3633771
 OpenBabel04072215373D

 47 49  0  0  0  0  0  0  0  0999 V2000
    2.3894    0.5988   -1.3849 C   0  0  0  0  0  0  0  0  0  0  0  0
    2.4019    0.0200   -0.0827 O   0  0  0  0  0  0  0  0  0  0  0  0
    3.0213    0.6861    0.9393 C   0  0  0  0  0  0  0  0  0  0  0  0
    4.0640    1.5952    0.7359 C   0  0  0  0  0  0  0  0  0  0  0  0
    4.6553    2.2985    1.7731 C   0  0  0  0  0  0  0  0  0  0  0  0
    5.6186    3.1698    1.4657 N   0  0  0  0  0  0  0  0  0  0  0  0
    6.1633    3.8420    2.4808 C   0  0  0  0  0  0  0  0  0  0  0  0
    5.8468    3.7009    3.7671 N   0  0  0  0  0  0  0  0  0  0  0  0
    4.8866    2.8059    4.0704 C   0  0  0  0  0  0  0  0  0  0  0  0
    4.5704    2.6006    5.4415 N   0  0  0  0  0  0  0  0  0  0  0  0
    5.0278    3.4536    6.4804 C   0  0  0  0  0  0  0  0  0  0  0  0
    4.8733    4.8453    6.3543 C   0  0  0  0  0  0  0  0  0  0  0  0
    5.3785    5.7068    7.3246 C   0  0  0  0  0  0  0  0  0  0  0  0
    5.2230    7.4059    7.1154 Cl  0  0  0  0  0  0  0  0  0  0  0  0
    6.0229    5.1976    8.4490 C   0  0  0  0  0  0  0  0  0  0  0  0
    6.1475    3.8177    8.6129 C   0  0  0  0  0  0  0  0  0  0  0  0
    5.6471    2.9517    7.6356 C   0  0  0  0  0  0  0  0  0  0  0  0
    5.8432    1.2483    7.8616 Cl  0  0  0  0  0  0  0  0  0  0  0  0
    4.2206    2.0665    3.0814 C   0  0  0  0  0  0  0  0  0  0  0  0
    3.1842    1.1328    3.3120 C   0  0  0  0  0  0  0  0  0  0  0  0
    2.6200    0.4123    2.2563 C   0  0  0  0  0  0  0  0  0  0  0  0
    1.6839   -0.5095    2.6567 O   0  0  0  0  0  0  0  0  0  0  0  0
    1.7072   -1.7411    1.9356 C   0  0  0  0  0  0  0  0  0  0  0  0
    1.4247   -2.9103    2.8819 C   0  0  0  0  0  0  0  0  0  0  0  0
    1.4308   -4.2128    2.0887 C   0  0  0  0  0  0  0  0  0  0  0  0
    1.1744   -5.4458    2.9183 C   0  0  0  0  0  0  0  0  0  0  0  0
    1.0223   -5.4617    4.1361 O   0  0  0  0  0  0  0  0  0  0  0  0
    1.1284   -6.5942    2.1548 N   0  0  0  0  0  0  0  0  0  0  0  0
    0.9990   -7.8107    2.8605 O   0  0  0  0  0  0  0  0  0  0  0  0
    2.7744   -0.1419   -2.0922 H   0  0  0  0  0  0  0  0  0  0  0  0
    2.9567    1.5230   -1.5097 H   0  0  0  0  0  0  0  0  0  0  0  0
    1.3518    0.8195   -1.6512 H   0  0  0  0  0  0  0  0  0  0  0  0
    4.4726    1.7755   -0.2547 H   0  0  0  0  0  0  0  0  0  0  0  0
    6.9354    4.5638    2.2393 H   0  0  0  0  0  0  0  0  0  0  0  0
    4.7397    1.6222    5.6758 H   0  0  0  0  0  0  0  0  0  0  0  0
    4.3756    5.2526    5.4772 H   0  0  0  0  0  0  0  0  0  0  0  0
    6.4299    5.8732    9.1975 H   0  0  0  0  0  0  0  0  0  0  0  0
    6.6482    3.4255    9.4943 H   0  0  0  0  0  0  0  0  0  0  0  0
    2.8165    0.9545    4.3207 H   0  0  0  0  0  0  0  0  0  0  0  0
    2.6823   -1.9232    1.4680 H   0  0  0  0  0  0  0  0  0  0  0  0
    0.9315   -1.7013    1.1626 H   0  0  0  0  0  0  0  0  0  0  0  0
    0.4637   -2.7634    3.3925 H   0  0  0  0  0  0  0  0  0  0  0  0
    2.1809   -2.9346    3.6770 H   0  0  0  0  0  0  0  0  0  0  0  0
    2.4050   -4.3387    1.6020 H   0  0  0  0  0  0  0  0  0  0  0  0
    0.6638   -4.1680    1.3072 H   0  0  0  0  0  0  0  0  0  0  0  0
    1.5115   -6.6529    1.2172 H   0  0  0  0  0  0  0  0  0  0  0  0
    0.9316   -7.5085    3.7929 H   0  0  0  0  0  0  0  0  0  0  0  0
  1  2  1  0  0  0  0
  1 30  1  0  0  0  0
  1 31  1  0  0  0  0
  1 32  1  0  0  0  0
  2  3  1  0  0  0  0
  3  4  1  0  0  0  0
  3 21  2  0  0  0  0
  4  5  2  0  0  0  0
  4 33  1  0  0  0  0
  5  6  1  0  0  0  0
  5 19  1  0  0  0  0
  6  7  2  0  0  0  0
  7  8  1  0  0  0  0
  7 34  1  0  0  0  0
  8  9  2  0  0  0  0
  9 10  1  0  0  0  0
  9 19  1  0  0  0  0
 10 11  1  0  0  0  0
 10 35  1  0  0  0  0
 11 12  1  0  0  0  0
 11 17  2  0  0  0  0
 12 13  2  0  0  0  0
 12 36  1  0  0  0  0
 13 14  1  0  0  0  0
 13 15  1  0  0  0  0
 15 16  2  0  0  0  0
 15 37  1  0  0  0  0
 16 17  1  0  0  0  0
 16 38  1  0  0  0  0
 17 18  1  0  0  0  0
 19 20  2  0  0  0  0
 20 21  1  0  0  0  0
 20 39  1  0  0  0  0
 21 22  1  0  0  0  0
 22 23  1  0  0  0  0
 23 24  1  0  0  0  0
 23 40  1  0  0  0  0
 23 41  1  0  0  0  0
 24 25  1  0  0  0  0
 24 42  1  0  0  0  0
 24 43  1  0  0  0  0
 25 26  1  0  0  0  0
 25 44  1  0  0  0  0
 25 45  1  0  0  0  0
 26 27  2  0  0  0  0
 26 28  1  0  0  0  0
 28 29  1  0  0  0  0
 28 46  1  0  0  0  0
 29 47  1  0  0  0  0
M  END
$$$$
