CHEMBL3676391
 OpenBabel04072215373D

 65 67  0  0  0  0  0  0  0  0999 V2000
    4.7248   -2.0275   -1.3429 C   0  0  0  0  0  0  0  0  0  0  0  0
    4.2381   -0.8826   -0.8476 C   0  0  0  0  0  0  0  0  0  0  0  0
    5.1068   -0.0210   -0.0090 C   0  0  0  0  0  0  0  0  0  0  0  0
    6.2411   -0.3570    0.3111 O   0  0  0  0  0  0  0  0  0  0  0  0
    4.4848    1.1472    0.3805 N   0  0  0  0  0  0  0  0  0  0  0  0
    5.1782    2.1682    1.0559 C   0  0  0  0  0  0  0  0  0  0  0  0
    6.3747    2.6123    0.4870 C   0  0  0  0  0  0  0  0  0  0  0  0
    7.0460    3.7390    0.9905 C   0  0  0  0  0  0  0  0  0  0  0  0
    8.1443    4.3499    0.3687 C   0  0  0  0  0  0  0  0  0  0  0  0
    8.5732    3.9073   -0.9124 N   0  0  0  0  0  0  0  0  0  0  0  0
    9.3482    4.6813   -1.8080 C   0  0  0  0  0  0  0  0  0  0  0  0
    9.0674    6.0395   -2.0182 C   0  0  0  0  0  0  0  0  0  0  0  0
    9.8884    6.8257   -2.8290 C   0  0  0  0  0  0  0  0  0  0  0  0
   10.9928    6.2509   -3.4532 C   0  0  0  0  0  0  0  0  0  0  0  0
   12.1465    7.3345   -4.4860 Br  0  0  0  0  0  0  0  0  0  0  0  0
   11.2598    4.8922   -3.3077 C   0  0  0  0  0  0  0  0  0  0  0  0
   10.4299    4.1198   -2.4974 C   0  0  0  0  0  0  0  0  0  0  0  0
   10.6994    2.8130   -2.3506 F   0  0  0  0  0  0  0  0  0  0  0  0
    8.7580    5.4197    0.9125 N   0  0  0  0  0  0  0  0  0  0  0  0
    8.2577    5.8812    2.0575 C   0  0  0  0  0  0  0  0  0  0  0  0
    7.1777    5.4181    2.6971 N   0  0  0  0  0  0  0  0  0  0  0  0
    6.5639    4.3698    2.1493 C   0  0  0  0  0  0  0  0  0  0  0  0
    5.3785    3.8997    2.7207 C   0  0  0  0  0  0  0  0  0  0  0  0
    4.6617    2.8226    2.1818 C   0  0  0  0  0  0  0  0  0  0  0  0
    3.5032    2.4745    2.8517 O   0  0  0  0  0  0  0  0  0  0  0  0
    3.4102    1.0652    3.0645 C   0  0  0  0  0  0  0  0  0  0  0  0
    2.3984    0.6450    4.1263 C   0  0  0  0  0  0  0  0  0  0  0  0
    2.2424   -0.7862    4.1152 O   0  0  0  0  0  0  0  0  0  0  0  0
    3.4326   -1.4851    4.5115 C   0  0  0  0  0  0  0  0  0  0  0  0
    3.2293   -2.9936    4.3955 C   0  0  0  0  0  0  0  0  0  0  0  0
    2.2085   -3.4568    5.2896 O   0  0  0  0  0  0  0  0  0  0  0  0
    2.5686   -3.4975    6.5979 C   0  0  0  0  0  0  0  0  0  0  0  0
    3.6617   -3.1759    7.0468 O   0  0  0  0  0  0  0  0  0  0  0  0
    1.4276   -3.9719    7.4308 C   0  0  0  0  0  0  0  0  0  0  0  0
    1.3260   -5.4563    7.4357 C   0  0  0  0  0  0  0  0  0  0  0  0
    2.0693   -6.2288    6.8446 O   0  0  0  0  0  0  0  0  0  0  0  0
    0.2161   -5.8227    8.1374 O   0  0  0  0  0  0  0  0  0  0  0  0
   -0.2281   -7.1666    7.9125 C   0  0  0  0  0  0  0  0  0  0  0  0
   -1.1398   -7.1602    6.6984 C   0  0  0  0  0  0  0  0  0  0  0  0
    4.1309   -2.6505   -2.0015 H   0  0  0  0  0  0  0  0  0  0  0  0
    5.7358   -2.3599   -1.1160 H   0  0  0  0  0  0  0  0  0  0  0  0
    3.2393   -0.5464   -1.0920 H   0  0  0  0  0  0  0  0  0  0  0  0
    3.4750    1.2005    0.3682 H   0  0  0  0  0  0  0  0  0  0  0  0
    6.7469    2.1189   -0.4090 H   0  0  0  0  0  0  0  0  0  0  0  0
    8.8575    2.9313   -0.8909 H   0  0  0  0  0  0  0  0  0  0  0  0
    8.2129    6.4994   -1.5267 H   0  0  0  0  0  0  0  0  0  0  0  0
    9.6648    7.8828   -2.9450 H   0  0  0  0  0  0  0  0  0  0  0  0
   12.1107    4.4286   -3.7945 H   0  0  0  0  0  0  0  0  0  0  0  0
    8.7717    6.7275    2.5047 H   0  0  0  0  0  0  0  0  0  0  0  0
    5.0036    4.3984    3.6128 H   0  0  0  0  0  0  0  0  0  0  0  0
    4.3995    0.6793    3.3285 H   0  0  0  0  0  0  0  0  0  0  0  0
    3.0621    0.5719    2.1566 H   0  0  0  0  0  0  0  0  0  0  0  0
    1.4189    1.0790    3.8921 H   0  0  0  0  0  0  0  0  0  0  0  0
    2.6688    0.9939    5.1280 H   0  0  0  0  0  0  0  0  0  0  0  0
    3.6809   -1.1816    5.5318 H   0  0  0  0  0  0  0  0  0  0  0  0
    4.2640   -1.2349    3.8492 H   0  0  0  0  0  0  0  0  0  0  0  0
    4.1679   -3.5298    4.5837 H   0  0  0  0  0  0  0  0  0  0  0  0
    2.9047   -3.2495    3.3805 H   0  0  0  0  0  0  0  0  0  0  0  0
    0.5027   -3.5484    7.0201 H   0  0  0  0  0  0  0  0  0  0  0  0
    1.5535   -3.5938    8.4485 H   0  0  0  0  0  0  0  0  0  0  0  0
   -0.7821   -7.4849    8.8004 H   0  0  0  0  0  0  0  0  0  0  0  0
    0.6112   -7.8594    7.7838 H   0  0  0  0  0  0  0  0  0  0  0  0
   -1.9932   -6.4962    6.8714 H   0  0  0  0  0  0  0  0  0  0  0  0
   -1.5084   -8.1638    6.4743 H   0  0  0  0  0  0  0  0  0  0  0  0
   -0.6164   -6.7708    5.8182 H   0  0  0  0  0  0  0  0  0  0  0  0
  1  2  2  0  0  0  0
  1 40  1  0  0  0  0
  1 41  1  0  0  0  0
  2  3  1  0  0  0  0
  2 42  1  0  0  0  0
  3  4  2  0  0  0  0
  3  5  1  0  0  0  0
  5  6  1  0  0  0  0
  5 43  1  0  0  0  0
  6  7  1  0  0  0  0
  6 24  2  0  0  0  0
  7  8  2  0  0  0  0
  7 44  1  0  0  0  0
  8  9  1  0  0  0  0
  8 22  1  0  0  0  0
  9 10  1  0  0  0  0
  9 19  2  0  0  0  0
 10 11  1  0  0  0  0
 10 45  1  0  0  0  0
 11 12  1  0  0  0  0
 11 17  2  0  0  0  0
 12 13  2  0  0  0  0
 12 46  1  0  0  0  0
 13 14  1  0  0  0  0
 13 47  1  0  0  0  0
 14 15  1  0  0  0  0
 14 16  2  0  0  0  0
 16 17  1  0  0  0  0
 16 48  1  0  0  0  0
 17 18  1  0  0  0  0
 19 20  1  0  0  0  0
 20 21  2  0  0  0  0
 20 49  1  0  0  0  0
 21 22  1  0  0  0  0
 22 23  2  0  0  0  0
 23 24  1  0  0  0  0
 23 50  1  0  0  0  0
 24 25  1  0  0  0  0
 25 26  1  0  0  0  0
 26 27  1  0  0  0  0
 26 51  1  0  0  0  0
 26 52  1  0  0  0  0
 27 28  1  0  0  0  0
 27 53  1  0  0  0  0
 27 54  1  0  0  0  0
 28 29  1  0  0  0  0
 29 30  1  0  0  0  0
 29 55  1  0  0  0  0
 29 56  1  0  0  0  0
 30 31  1  0  0  0  0
 30 57  1  0  0  0  0
 30 58  1  0  0  0  0
 31 32  1  0  0  0  0
 32 33  2  0  0  0  0
 32 34  1  0  0  0  0
 34 35  1  0  0  0  0
 34 59  1  0  0  0  0
 34 60  1  0  0  0  0
 35 36  2  0  0  0  0
 35 37  1  0  0  0  0
 37 38  1  0  0  0  0
 38 39  1  0  0  0  0
 38 61  1  0  0  0  0
 38 62  1  0  0  0  0
 39 63  1  0  0  0  0
 39 64  1  0  0  0  0
 39 65  1  0  0  0  0
M  END
$$$$
