CHEMBL3950510
 OpenBabel04072215373D

 64 67  0  0  1  0  0  0  0  0999 V2000
    4.9783    2.2925   -6.8195 C   0  0  0  0  0  0  0  0  0  0  0  0
    4.9409    1.8301   -5.4689 O   0  0  0  0  0  0  0  0  0  0  0  0
    5.1386    0.4754   -5.3573 C   0  0  0  0  0  0  0  0  0  0  0  0
    6.1550   -0.1871   -6.0471 C   0  0  0  0  0  0  0  0  0  0  0  0
    6.3165   -1.5531   -5.8733 C   0  0  0  0  0  0  0  0  0  0  0  0
    7.2776   -2.3219   -6.4710 O   0  0  0  0  0  0  0  0  0  0  0  0
    8.4497   -1.6376   -6.9033 C   0  0  0  0  0  0  0  0  0  0  0  0
    5.4340   -2.2521   -5.0397 C   0  0  0  0  0  0  0  0  0  0  0  0
    4.4096   -1.6154   -4.3103 C   0  0  0  0  0  0  0  0  0  0  0  0
    3.5910   -2.3037   -3.3823 N   0  0  0  0  0  0  0  0  0  0  0  0
    4.1300   -3.6210   -2.8476 C   0  0  0  0  0  0  0  0  0  0  0  0
    5.4389   -3.5811   -2.0437 C   0  0  2  0  0  0  0  0  0  0  0  0
    5.8822   -4.9797   -1.9211 O   0  0  0  0  0  0  0  0  0  0  0  0
    5.3315   -2.9494   -0.6489 C   0  0  0  0  0  0  0  0  0  0  0  0
    4.1870   -2.2968   -0.4040 F   0  0  0  0  0  0  0  0  0  0  0  0
    5.4365   -3.9270    0.2963 F   0  0  0  0  0  0  0  0  0  0  0  0
    6.3608   -2.0926   -0.4215 F   0  0  0  0  0  0  0  0  0  0  0  0
    2.1419   -2.3494   -3.3207 C   0  0  0  0  0  0  0  0  0  0  0  0
    1.6192   -2.6213   -2.0560 C   0  0  0  0  0  0  0  0  0  0  0  0
    0.4338   -3.3092   -1.9426 C   0  0  0  0  0  0  0  0  0  0  0  0
   -0.3938   -3.5009   -3.0195 C   0  0  0  0  0  0  0  0  0  0  0  0
   -1.4206   -4.3013   -2.7522 N   0  0  0  0  0  0  0  0  0  0  0  0
   -2.4158   -4.2787   -3.6326 C   0  0  0  0  0  0  0  0  0  0  0  0
   -2.4093   -3.4195   -4.7177 C   0  0  0  0  0  0  0  0  0  0  0  0
   -3.7430   -3.0138   -5.1649 C   0  0  0  0  0  0  0  0  0  0  0  0
   -4.5328   -3.3506   -6.2857 C   0  0  0  0  0  0  0  0  0  0  0  0
   -5.8032   -2.9247   -6.1799 N   0  0  0  0  0  0  0  0  0  0  0  0
   -5.8440   -2.3332   -4.9704 N   0  0  0  0  0  0  0  0  0  0  0  0
   -7.0341   -1.6220   -4.5288 C   0  0  0  0  0  0  0  0  0  0  0  0
   -6.9110   -0.1061   -4.7077 C   0  0  0  0  0  0  0  0  0  0  0  0
   -6.6189    0.3415   -6.1414 C   0  0  0  0  0  0  0  0  0  0  0  0
   -7.6873   -0.0383   -7.0587 N   0  0  0  0  0  0  0  0  0  0  0  0
   -4.6663   -2.4531   -4.2894 C   0  0  0  0  0  0  0  0  0  0  0  0
   -1.2529   -2.7522   -5.0912 N   0  0  0  0  0  0  0  0  0  0  0  0
   -0.1572   -2.8310   -4.2390 C   0  0  0  0  0  0  0  0  0  0  0  0
    1.2065   -2.3362   -4.3889 C   0  0  0  0  0  0  0  0  0  0  0  0
    4.3055   -0.2224   -4.4651 C   0  0  0  0  0  0  0  0  0  0  0  0
    4.6057    3.3216   -6.8397 H   0  0  0  0  0  0  0  0  0  0  0  0
    4.3265    1.6863   -7.4619 H   0  0  0  0  0  0  0  0  0  0  0  0
    5.9993    2.3099   -7.2163 H   0  0  0  0  0  0  0  0  0  0  0  0
    6.8143    0.3631   -6.7059 H   0  0  0  0  0  0  0  0  0  0  0  0
    9.1970   -2.3923   -7.1681 H   0  0  0  0  0  0  0  0  0  0  0  0
    8.8695   -1.0179   -6.1067 H   0  0  0  0  0  0  0  0  0  0  0  0
    8.2469   -1.0430   -7.8010 H   0  0  0  0  0  0  0  0  0  0  0  0
    5.5948   -3.3235   -4.9680 H   0  0  0  0  0  0  0  0  0  0  0  0
    4.2306   -4.3142   -3.6901 H   0  0  0  0  0  0  0  0  0  0  0  0
    3.4118   -4.1472   -2.2116 H   0  0  0  0  0  0  0  0  0  0  0  0
    6.2394   -3.0846   -2.5899 H   0  0  0  0  0  0  0  0  0  0  0  0
    5.8886   -5.2070   -0.9659 H   0  0  0  0  0  0  0  0  0  0  0  0
    2.2142   -2.4804   -1.1666 H   0  0  0  0  0  0  0  0  0  0  0  0
    0.1527   -3.7193   -0.9705 H   0  0  0  0  0  0  0  0  0  0  0  0
   -3.2866   -4.8655   -3.3630 H   0  0  0  0  0  0  0  0  0  0  0  0
   -4.2608   -3.9232   -7.1612 H   0  0  0  0  0  0  0  0  0  0  0  0
   -7.1841   -1.8572   -3.4673 H   0  0  0  0  0  0  0  0  0  0  0  0
   -7.8993   -2.0229   -5.0686 H   0  0  0  0  0  0  0  0  0  0  0  0
   -6.1064    0.2682   -4.0622 H   0  0  0  0  0  0  0  0  0  0  0  0
   -7.8342    0.3717   -4.3569 H   0  0  0  0  0  0  0  0  0  0  0  0
   -5.6664   -0.0683   -6.4933 H   0  0  0  0  0  0  0  0  0  0  0  0
   -6.5157    1.4321   -6.1561 H   0  0  0  0  0  0  0  0  0  0  0  0
   -7.6858   -1.0583   -7.1609 H   0  0  0  0  0  0  0  0  0  0  0  0
   -7.4505    0.3053   -7.9911 H   0  0  0  0  0  0  0  0  0  0  0  0
   -4.5851   -2.1374   -3.2562 H   0  0  0  0  0  0  0  0  0  0  0  0
    1.5203   -1.9965   -5.3854 H   0  0  0  0  0  0  0  0  0  0  0  0
    3.5907    0.3399   -3.8685 H   0  0  0  0  0  0  0  0  0  0  0  0
  1  2  1  0  0  0  0
  1 38  1  0  0  0  0
  1 39  1  0  0  0  0
  1 40  1  0  0  0  0
  2  3  1  0  0  0  0
  3  4  1  0  0  0  0
  3 37  2  0  0  0  0
  4  5  2  0  0  0  0
  4 41  1  0  0  0  0
  5  6  1  0  0  0  0
  5  8  1  0  0  0  0
  6  7  1  0  0  0  0
  7 42  1  0  0  0  0
  7 43  1  0  0  0  0
  7 44  1  0  0  0  0
  8  9  2  0  0  0  0
  8 45  1  0  0  0  0
  9 10  1  0  0  0  0
  9 37  1  0  0  0  0
 10 11  1  0  0  0  0
 10 18  1  0  0  0  0
 11 46  1  0  0  0  0
 11 47  1  0  0  0  0
 12 14  1  0  0  0  0
 12 13  1  0  0  0  0
 12 11  1  0  0  0  0
 12 48  1  6  0  0  0
 13 49  1  0  0  0  0
 14 15  1  0  0  0  0
 14 16  1  0  0  0  0
 14 17  1  0  0  0  0
 18 19  1  0  0  0  0
 18 36  2  0  0  0  0
 19 20  2  0  0  0  0
 19 50  1  0  0  0  0
 20 21  1  0  0  0  0
 20 51  1  0  0  0  0
 21 22  1  0  0  0  0
 21 35  2  0  0  0  0
 22 23  2  0  0  0  0
 23 24  1  0  0  0  0
 23 52  1  0  0  0  0
 24 25  1  0  0  0  0
 24 34  2  0  0  0  0
 25 26  1  0  0  0  0
 25 33  2  0  0  0  0
 26 27  2  0  0  0  0
 26 53  1  0  0  0  0
 27 28  1  0  0  0  0
 28 29  1  0  0  0  0
 28 33  1  0  0  0  0
 29 30  1  0  0  0  0
 29 54  1  0  0  0  0
 29 55  1  0  0  0  0
 30 31  1  0  0  0  0
 30 56  1  0  0  0  0
 30 57  1  0  0  0  0
 31 32  1  0  0  0  0
 31 58  1  0  0  0  0
 31 59  1  0  0  0  0
 32 60  1  0  0  0  0
 32 61  1  0  0  0  0
 33 62  1  0  0  0  0
 34 35  1  0  0  0  0
 35 36  1  0  0  0  0
 36 63  1  0  0  0  0
 37 64  1  0  0  0  0
M  END
$$$$
