CHEMBL1077291
 OpenBabel04072215353D

 32 35  0  0  0  0  0  0  0  0999 V2000
    1.3677   -0.2982    0.0275 O   0  0  0  0  0  0  0  0  0  0  0  0
    2.5848   -0.3183    0.0611 C   0  0  0  0  0  0  0  0  0  0  0  0
    3.4415    0.7748    0.1580 N   0  0  0  0  0  0  0  0  0  0  0  0
    4.7782    0.3815    0.1075 C   0  0  0  0  0  0  0  0  0  0  0  0
    5.8901    1.2094    0.1650 C   0  0  0  0  0  0  0  0  0  0  0  0
    7.1508    0.6157    0.0633 C   0  0  0  0  0  0  0  0  0  0  0  0
    7.2522   -0.7541   -0.1733 C   0  0  0  0  0  0  0  0  0  0  0  0
    8.4615   -1.3187   -0.2922 F   0  0  0  0  0  0  0  0  0  0  0  0
    6.1220   -1.5525   -0.2931 C   0  0  0  0  0  0  0  0  0  0  0  0
    4.8731   -1.0019   -0.0591 C   0  0  0  0  0  0  0  0  0  0  0  0
    3.4925   -1.5246    0.0122 C   0  0  0  0  0  0  0  0  0  0  0  0
    2.9971   -2.7713    0.1370 C   0  0  0  0  0  0  0  0  0  0  0  0
    1.6782   -3.2171    0.1644 N   0  0  0  0  0  0  0  0  0  0  0  0
    1.6503   -4.6063    0.0294 C   0  0  0  0  0  0  0  0  0  0  0  0
    0.5584   -5.4542   -0.0002 C   0  0  0  0  0  0  0  0  0  0  0  0
    0.7862   -6.8408   -0.0400 C   0  0  0  0  0  0  0  0  0  0  0  0
    2.0879   -7.3648   -0.0450 C   0  0  0  0  0  0  0  0  0  0  0  0
    3.1834   -6.5111    0.0160 C   0  0  0  0  0  0  0  0  0  0  0  0
    2.9398   -5.1507    0.0750 C   0  0  0  0  0  0  0  0  0  0  0  0
    3.8660   -4.0199    0.2542 C   0  0  0  0  0  0  0  0  0  0  0  0
    5.1286   -4.0310    0.5266 N   0  0  0  0  0  0  0  0  0  0  0  0
    5.7220   -5.2842    0.5126 O   0  0  0  0  0  0  0  0  0  0  0  0
    3.1145    1.7281    0.2138 H   0  0  0  0  0  0  0  0  0  0  0  0
    5.8029    2.2807    0.2957 H   0  0  0  0  0  0  0  0  0  0  0  0
    8.0598    1.2030    0.1430 H   0  0  0  0  0  0  0  0  0  0  0  0
    6.2731   -2.5811   -0.5719 H   0  0  0  0  0  0  0  0  0  0  0  0
    0.9341   -2.6022   -0.1307 H   0  0  0  0  0  0  0  0  0  0  0  0
   -0.4564   -5.0733    0.0264 H   0  0  0  0  0  0  0  0  0  0  0  0
   -0.0543   -7.5308   -0.0494 H   0  0  0  0  0  0  0  0  0  0  0  0
    2.2521   -8.4385   -0.0716 H   0  0  0  0  0  0  0  0  0  0  0  0
    4.1872   -6.9132    0.0336 H   0  0  0  0  0  0  0  0  0  0  0  0
    6.6700   -5.0568    0.5425 H   0  0  0  0  0  0  0  0  0  0  0  0
  1  2  2  0  0  0  0
  2  3  1  0  0  0  0
  2 11  1  0  0  0  0
  3  4  1  0  0  0  0
  3 23  1  0  0  0  0
  4  5  1  0  0  0  0
  4 10  2  0  0  0  0
  5  6  2  0  0  0  0
  5 24  1  0  0  0  0
  6  7  1  0  0  0  0
  6 25  1  0  0  0  0
  7  8  1  0  0  0  0
  7  9  2  0  0  0  0
  9 10  1  0  0  0  0
  9 26  1  0  0  0  0
 10 11  1  0  0  0  0
 11 12  2  0  0  0  0
 12 13  1  0  0  0  0
 12 20  1  0  0  0  0
 13 14  1  0  0  0  0
 13 27  1  0  0  0  0
 14 15  1  0  0  0  0
 14 19  2  0  0  0  0
 15 16  2  0  0  0  0
 15 28  1  0  0  0  0
 16 17  1  0  0  0  0
 16 29  1  0  0  0  0
 17 18  2  0  0  0  0
 17 30  1  0  0  0  0
 18 19  1  0  0  0  0
 18 31  1  0  0  0  0
 19 20  1  0  0  0  0
 20 21  2  0  0  0  0
 21 22  1  0  0  0  0
 22 32  1  0  0  0  0
M  END
$$$$
