CHEMBL149243
 OpenBabel04072215363D

 42 44  0  0  0  0  0  0  0  0999 V2000
    1.1394    0.2906    0.2214 C   0  0  0  0  0  0  0  0  0  0  0  0
    2.4892    0.0630   -0.1678 O   0  0  0  0  0  0  0  0  0  0  0  0
    3.0393    0.9929   -1.0096 C   0  0  0  0  0  0  0  0  0  0  0  0
    2.6694    2.3507   -1.0680 C   0  0  0  0  0  0  0  0  0  0  0  0
    3.3138    3.2407   -1.9454 C   0  0  0  0  0  0  0  0  0  0  0  0
    4.3226    2.7506   -2.7560 C   0  0  0  0  0  0  0  0  0  0  0  0
    4.6802    1.4016   -2.6798 C   0  0  0  0  0  0  0  0  0  0  0  0
    4.0726    0.5126   -1.8162 C   0  0  0  0  0  0  0  0  0  0  0  0
    5.6917    1.1109   -3.5870 N   0  0  0  0  0  0  0  0  0  0  0  0
    6.0536    2.2287   -4.3242 C   0  0  0  0  0  0  0  0  0  0  0  0
    6.8660    2.2500   -5.2259 O   0  0  0  0  0  0  0  0  0  0  0  0
    5.1982    3.3496   -3.7775 C   0  0  0  0  0  0  0  0  0  0  0  0
    5.2359    4.6468   -4.1223 C   0  0  0  0  0  0  0  0  0  0  0  0
    6.1569    5.1696   -5.0638 C   0  0  0  0  0  0  0  0  0  0  0  0
    5.8013    5.1921   -6.3873 N   0  0  0  0  0  0  0  0  0  0  0  0
    6.8273    5.7103   -7.1331 C   0  0  0  0  0  0  0  0  0  0  0  0
    7.8782    6.0168   -6.2880 C   0  0  0  0  0  0  0  0  0  0  0  0
    9.2349    6.5051   -6.7099 C   0  0  0  0  0  0  0  0  0  0  0  0
    9.2119    7.8558   -7.4192 C   0  0  0  0  0  0  0  0  0  0  0  0
   10.6158    8.3049   -7.7526 C   0  0  0  0  0  0  0  0  0  0  0  0
   11.6401    7.6973   -7.4867 O   0  0  0  0  0  0  0  0  0  0  0  0
   10.6373    9.4956   -8.3978 O   0  0  0  0  0  0  0  0  0  0  0  0
    7.4390    5.6902   -4.9570 C   0  0  0  0  0  0  0  0  0  0  0  0
    8.2133    5.8094   -3.6895 C   0  0  0  0  0  0  0  0  0  0  0  0
    0.8084   -0.5785    0.7990 H   0  0  0  0  0  0  0  0  0  0  0  0
    0.4888    0.3783   -0.6553 H   0  0  0  0  0  0  0  0  0  0  0  0
    1.0493    1.1669    0.8700 H   0  0  0  0  0  0  0  0  0  0  0  0
    1.8920    2.7463   -0.4205 H   0  0  0  0  0  0  0  0  0  0  0  0
    3.0195    4.2842   -1.9724 H   0  0  0  0  0  0  0  0  0  0  0  0
    4.3726   -0.5281   -1.7680 H   0  0  0  0  0  0  0  0  0  0  0  0
    6.1072    0.2052   -3.7413 H   0  0  0  0  0  0  0  0  0  0  0  0
    4.5801    5.3622   -3.6348 H   0  0  0  0  0  0  0  0  0  0  0  0
    4.9358    4.8305   -6.7643 H   0  0  0  0  0  0  0  0  0  0  0  0
    6.7394    5.7687   -8.2096 H   0  0  0  0  0  0  0  0  0  0  0  0
    9.6842    5.7508   -7.3692 H   0  0  0  0  0  0  0  0  0  0  0  0
    9.8983    6.5710   -5.8413 H   0  0  0  0  0  0  0  0  0  0  0  0
    8.7495    8.6144   -6.7777 H   0  0  0  0  0  0  0  0  0  0  0  0
    8.6431    7.7860   -8.3534 H   0  0  0  0  0  0  0  0  0  0  0  0
    9.7520    9.8767   -8.5484 H   0  0  0  0  0  0  0  0  0  0  0  0
    9.2161    6.2122   -3.8480 H   0  0  0  0  0  0  0  0  0  0  0  0
    8.3217    4.8274   -3.2174 H   0  0  0  0  0  0  0  0  0  0  0  0
    7.6959    6.4754   -2.9916 H   0  0  0  0  0  0  0  0  0  0  0  0
  1  2  1  0  0  0  0
  1 25  1  0  0  0  0
  1 26  1  0  0  0  0
  1 27  1  0  0  0  0
  2  3  1  0  0  0  0
  3  4  1  0  0  0  0
  3  8  2  0  0  0  0
  4  5  2  0  0  0  0
  4 28  1  0  0  0  0
  5  6  1  0  0  0  0
  5 29  1  0  0  0  0
  6  7  2  0  0  0  0
  6 12  1  0  0  0  0
  7  8  1  0  0  0  0
  7  9  1  0  0  0  0
  8 30  1  0  0  0  0
  9 10  1  0  0  0  0
  9 31  1  0  0  0  0
 10 11  2  0  0  0  0
 10 12  1  0  0  0  0
 12 13  2  0  0  0  0
 13 14  1  0  0  0  0
 13 32  1  0  0  0  0
 14 15  1  0  0  0  0
 14 23  2  0  0  0  0
 15 16  1  0  0  0  0
 15 33  1  0  0  0  0
 16 17  2  0  0  0  0
 16 34  1  0  0  0  0
 17 18  1  0  0  0  0
 17 23  1  0  0  0  0
 18 19  1  0  0  0  0
 18 35  1  0  0  0  0
 18 36  1  0  0  0  0
 19 20  1  0  0  0  0
 19 37  1  0  0  0  0
 19 38  1  0  0  0  0
 20 21  2  0  0  0  0
 20 22  1  0  0  0  0
 22 39  1  0  0  0  0
 23 24  1  0  0  0  0
 24 40  1  0  0  0  0
 24 41  1  0  0  0  0
 24 42  1  0  0  0  0
M  END
$$$$
