CHEMBL83656
 OpenBabel04072215383D

 38 41  0  0  0  0  0  0  0  0999 V2000
    2.9881   -0.3085   -1.1018 C   0  0  0  0  0  0  0  0  0  0  0  0
    2.3932   -0.3129    0.1901 O   0  0  0  0  0  0  0  0  0  0  0  0
    3.2087   -0.0280    1.2498 C   0  0  0  0  0  0  0  0  0  0  0  0
    4.5749    0.2458    1.1848 C   0  0  0  0  0  0  0  0  0  0  0  0
    5.2926    0.5296    2.3534 C   0  0  0  0  0  0  0  0  0  0  0  0
    4.6517    0.5343    3.5978 C   0  0  0  0  0  0  0  0  0  0  0  0
    5.4033    0.8351    4.8123 C   0  0  0  0  0  0  0  0  0  0  0  0
    6.0340   -0.2299    5.6529 C   0  0  0  0  0  0  0  0  0  0  0  0
    6.7215   -0.0483    6.7411 N   0  0  0  0  0  0  0  0  0  0  0  0
    6.8784    1.2541    7.1514 C   0  0  0  0  0  0  0  0  0  0  0  0
    7.5338    1.8368    8.2250 C   0  0  0  0  0  0  0  0  0  0  0  0
    8.2649    1.1565    9.2855 C   0  0  0  0  0  0  0  0  0  0  0  0
    9.3450    1.8021    9.9097 C   0  0  0  0  0  0  0  0  0  0  0  0
   10.0048    1.2138   10.9924 C   0  0  0  0  0  0  0  0  0  0  0  0
    9.5959   -0.0309   11.4628 C   0  0  0  0  0  0  0  0  0  0  0  0
    8.5408   -0.6939   10.8399 C   0  0  0  0  0  0  0  0  0  0  0  0
    7.8807   -0.1054    9.7555 C   0  0  0  0  0  0  0  0  0  0  0  0
    7.3047    3.2215    8.0629 C   0  0  0  0  0  0  0  0  0  0  0  0
    6.5828    3.5185    6.9850 N   0  0  0  0  0  0  0  0  0  0  0  0
    6.3184    2.3168    6.4219 N   0  0  0  0  0  0  0  0  0  0  0  0
    5.5880    2.0852    5.2631 C   0  0  0  0  0  0  0  0  0  0  0  0
    3.2824    0.2630    3.6612 C   0  0  0  0  0  0  0  0  0  0  0  0
    2.5695   -0.0179    2.4922 C   0  0  0  0  0  0  0  0  0  0  0  0
    2.1964   -0.4898   -1.8352 H   0  0  0  0  0  0  0  0  0  0  0  0
    3.7234   -1.1142   -1.1962 H   0  0  0  0  0  0  0  0  0  0  0  0
    3.4350    0.6644   -1.3320 H   0  0  0  0  0  0  0  0  0  0  0  0
    5.1131    0.2490    0.2427 H   0  0  0  0  0  0  0  0  0  0  0  0
    6.3563    0.7482    2.2798 H   0  0  0  0  0  0  0  0  0  0  0  0
    5.8870   -1.2622    5.2916 H   0  0  0  0  0  0  0  0  0  0  0  0
    9.6880    2.7738    9.5625 H   0  0  0  0  0  0  0  0  0  0  0  0
   10.8319    1.7321   11.4706 H   0  0  0  0  0  0  0  0  0  0  0  0
   10.0980   -0.4832   12.3140 H   0  0  0  0  0  0  0  0  0  0  0  0
    8.2210   -1.6672   11.2027 H   0  0  0  0  0  0  0  0  0  0  0  0
    7.0503   -0.6380    9.2981 H   0  0  0  0  0  0  0  0  0  0  0  0
    7.6326    4.0306    8.7032 H   0  0  0  0  0  0  0  0  0  0  0  0
    5.1960    2.9676    4.7738 H   0  0  0  0  0  0  0  0  0  0  0  0
    2.7563    0.2713    4.6133 H   0  0  0  0  0  0  0  0  0  0  0  0
    1.5038   -0.2281    2.5491 H   0  0  0  0  0  0  0  0  0  0  0  0
  1  2  1  0  0  0  0
  1 24  1  0  0  0  0
  1 25  1  0  0  0  0
  1 26  1  0  0  0  0
  2  3  1  0  0  0  0
  3  4  1  0  0  0  0
  3 23  2  0  0  0  0
  4  5  2  0  0  0  0
  4 27  1  0  0  0  0
  5  6  1  0  0  0  0
  5 28  1  0  0  0  0
  6  7  1  0  0  0  0
  6 22  2  0  0  0  0
  7  8  1  0  0  0  0
  7 21  2  0  0  0  0
  8  9  2  0  0  0  0
  8 29  1  0  0  0  0
  9 10  1  0  0  0  0
 10 11  2  0  0  0  0
 10 20  1  0  0  0  0
 11 12  1  0  0  0  0
 11 18  1  0  0  0  0
 12 13  1  0  0  0  0
 12 17  2  0  0  0  0
 13 14  2  0  0  0  0
 13 30  1  0  0  0  0
 14 15  1  0  0  0  0
 14 31  1  0  0  0  0
 15 16  2  0  0  0  0
 15 32  1  0  0  0  0
 16 17  1  0  0  0  0
 16 33  1  0  0  0  0
 17 34  1  0  0  0  0
 18 19  2  0  0  0  0
 18 35  1  0  0  0  0
 19 20  1  0  0  0  0
 20 21  1  0  0  0  0
 21 36  1  0  0  0  0
 22 23  1  0  0  0  0
 22 37  1  0  0  0  0
 23 38  1  0  0  0  0
M  END
$$$$
