CHEMBL4436272
 OpenBabel04072215383D

 62 65  0  0  0  0  0  0  0  0999 V2000
    9.0198    0.5901   -1.5884 C   0  0  0  0  0  0  0  0  0  0  0  0
    7.7798    0.5965   -2.2998 O   0  0  0  0  0  0  0  0  0  0  0  0
    6.9063    1.5276   -1.8121 C   0  0  0  0  0  0  0  0  0  0  0  0
    6.3665    2.4319   -2.7089 C   0  0  0  0  0  0  0  0  0  0  0  0
    5.5694    3.4633   -2.2107 C   0  0  0  0  0  0  0  0  0  0  0  0
    5.3473    3.6862   -0.8176 C   0  0  0  0  0  0  0  0  0  0  0  0
    4.6837    4.9903   -0.3592 C   0  0  0  0  0  0  0  0  0  0  0  0
    4.0370    5.1794    0.8538 C   0  0  0  0  0  0  0  0  0  0  0  0
    2.6377    5.0099    0.8422 C   0  0  0  0  0  0  0  0  0  0  0  0
    1.8370    4.8412    1.9783 C   0  0  0  0  0  0  0  0  0  0  0  0
    1.2319    3.6051    2.1055 C   0  0  0  0  0  0  0  0  0  0  0  0
    1.5894    2.6589    1.1474 C   0  0  0  0  0  0  0  0  0  0  0  0
    2.6316    1.8954    1.7302 O   0  0  0  0  0  0  0  0  0  0  0  0
    2.7492    0.5211    1.4093 C   0  0  0  0  0  0  0  0  0  0  0  0
    1.7989    3.1376   -0.1656 C   0  0  0  0  0  0  0  0  0  0  0  0
    2.2270    4.4727   -0.3462 C   0  0  0  0  0  0  0  0  0  0  0  0
    2.7057    5.0987   -1.4680 N   0  0  0  0  0  0  0  0  0  0  0  0
    3.9517    5.5955   -1.3340 C   0  0  0  0  0  0  0  0  0  0  0  0
    4.4766    6.6414   -2.1163 N   0  0  0  0  0  0  0  0  0  0  0  0
    5.7978    6.9563   -2.5241 C   0  0  0  0  0  0  0  0  0  0  0  0
    5.9786    7.9574   -3.4836 C   0  0  0  0  0  0  0  0  0  0  0  0
    7.2165    8.1592   -4.1178 C   0  0  0  0  0  0  0  0  0  0  0  0
    8.3177    7.3617   -3.8131 C   0  0  0  0  0  0  0  0  0  0  0  0
    9.5141    7.3408   -4.5654 N   0  0  0  0  0  0  0  0  0  0  0  0
    9.8148    8.1092   -5.6747 C   0  0  0  0  0  0  0  0  0  0  0  0
    9.1646    9.0828   -6.0897 O   0  0  0  0  0  0  0  0  0  0  0  0
   11.1029    7.7059   -6.4063 C   0  0  0  0  0  0  0  0  0  0  0  0
   11.0802    6.2986   -6.8702 N   0  0  0  0  0  0  0  0  0  0  0  0
    9.9726    6.0834   -7.8138 C   0  0  0  0  0  0  0  0  0  0  0  0
   12.3435    6.0048   -7.5569 C   0  0  0  0  0  0  0  0  0  0  0  0
    8.2010    6.4906   -2.7326 C   0  0  0  0  0  0  0  0  0  0  0  0
    6.9683    6.3323   -2.0701 C   0  0  0  0  0  0  0  0  0  0  0  0
    5.7256    2.6357    0.0190 C   0  0  0  0  0  0  0  0  0  0  0  0
    6.4877    1.5588   -0.4814 C   0  0  0  0  0  0  0  0  0  0  0  0
    9.6705    1.4004   -1.9388 H   0  0  0  0  0  0  0  0  0  0  0  0
    9.5188   -0.3606   -1.7972 H   0  0  0  0  0  0  0  0  0  0  0  0
    8.9001    0.6661   -0.5032 H   0  0  0  0  0  0  0  0  0  0  0  0
    6.5702    2.3662   -3.7695 H   0  0  0  0  0  0  0  0  0  0  0  0
    5.1459    4.1324   -2.9605 H   0  0  0  0  0  0  0  0  0  0  0  0
    4.5762    5.2015    1.7931 H   0  0  0  0  0  0  0  0  0  0  0  0
    1.8647    5.5338    2.8095 H   0  0  0  0  0  0  0  0  0  0  0  0
    0.8556    3.2956    3.0759 H   0  0  0  0  0  0  0  0  0  0  0  0
    3.7356    0.3512    0.9689 H   0  0  0  0  0  0  0  0  0  0  0  0
    1.9627    0.1618    0.7481 H   0  0  0  0  0  0  0  0  0  0  0  0
    2.7250   -0.0273    2.3541 H   0  0  0  0  0  0  0  0  0  0  0  0
    1.9417    2.4475   -0.9926 H   0  0  0  0  0  0  0  0  0  0  0  0
    3.7481    7.0201   -2.7082 H   0  0  0  0  0  0  0  0  0  0  0  0
    5.1387    8.5729   -3.7936 H   0  0  0  0  0  0  0  0  0  0  0  0
    7.2613    8.9159   -4.8926 H   0  0  0  0  0  0  0  0  0  0  0  0
   10.1746    6.5970   -4.3588 H   0  0  0  0  0  0  0  0  0  0  0  0
   11.9364    7.8635   -5.7023 H   0  0  0  0  0  0  0  0  0  0  0  0
   11.2537    8.3994   -7.2505 H   0  0  0  0  0  0  0  0  0  0  0  0
    9.0005    6.2528   -7.3412 H   0  0  0  0  0  0  0  0  0  0  0  0
    9.9680    5.0409   -8.1544 H   0  0  0  0  0  0  0  0  0  0  0  0
   10.0471    6.7291   -8.6975 H   0  0  0  0  0  0  0  0  0  0  0  0
   13.1965    6.1485   -6.8850 H   0  0  0  0  0  0  0  0  0  0  0  0
   12.4946    6.6383   -8.4405 H   0  0  0  0  0  0  0  0  0  0  0  0
   12.3696    4.9585   -7.8821 H   0  0  0  0  0  0  0  0  0  0  0  0
    9.0449    5.8887   -2.4043 H   0  0  0  0  0  0  0  0  0  0  0  0
    6.9674    5.6468   -1.2312 H   0  0  0  0  0  0  0  0  0  0  0  0
    5.4302    2.6204    1.0639 H   0  0  0  0  0  0  0  0  0  0  0  0
    6.7589    0.7421    0.1801 H   0  0  0  0  0  0  0  0  0  0  0  0
  1  2  1  0  0  0  0
  1 35  1  0  0  0  0
  1 36  1  0  0  0  0
  1 37  1  0  0  0  0
  2  3  1  0  0  0  0
  3  4  1  0  0  0  0
  3 34  2  0  0  0  0
  4  5  2  0  0  0  0
  4 38  1  0  0  0  0
  5  6  1  0  0  0  0
  5 39  1  0  0  0  0
  6  7  1  0  0  0  0
  6 33  2  0  0  0  0
  7  8  1  0  0  0  0
  7 18  2  0  0  0  0
  8  9  2  0  0  0  0
  8 40  1  0  0  0  0
  9 10  1  0  0  0  0
  9 16  1  0  0  0  0
 10 11  2  0  0  0  0
 10 41  1  0  0  0  0
 11 12  1  0  0  0  0
 11 42  1  0  0  0  0
 12 13  1  0  0  0  0
 12 15  2  0  0  0  0
 13 14  1  0  0  0  0
 14 43  1  0  0  0  0
 14 44  1  0  0  0  0
 14 45  1  0  0  0  0
 15 16  1  0  0  0  0
 15 46  1  0  0  0  0
 16 17  2  0  0  0  0
 17 18  1  0  0  0  0
 18 19  1  0  0  0  0
 19 20  1  0  0  0  0
 19 47  1  0  0  0  0
 20 21  1  0  0  0  0
 20 32  2  0  0  0  0
 21 22  2  0  0  0  0
 21 48  1  0  0  0  0
 22 23  1  0  0  0  0
 22 49  1  0  0  0  0
 23 24  1  0  0  0  0
 23 31  2  0  0  0  0
 24 25  1  0  0  0  0
 24 50  1  0  0  0  0
 25 26  2  0  0  0  0
 25 27  1  0  0  0  0
 27 28  1  0  0  0  0
 27 51  1  0  0  0  0
 27 52  1  0  0  0  0
 28 29  1  0  0  0  0
 28 30  1  0  0  0  0
 29 53  1  0  0  0  0
 29 54  1  0  0  0  0
 29 55  1  0  0  0  0
 30 56  1  0  0  0  0
 30 57  1  0  0  0  0
 30 58  1  0  0  0  0
 31 32  1  0  0  0  0
 31 59  1  0  0  0  0
 32 60  1  0  0  0  0
 33 34  1  0  0  0  0
 33 61  1  0  0  0  0
 34 62  1  0  0  0  0
M  END
$$$$
