CHEMBL270547
 OpenBabel04072215363D

 56 60  0  0  0  0  0  0  0  0999 V2000
    5.4659  -11.7166    6.3811 C   0  0  0  0  0  0  0  0  0  0  0  0
    5.6508  -11.5039    4.9819 O   0  0  0  0  0  0  0  0  0  0  0  0
    5.7680  -10.2003    4.5793 C   0  0  0  0  0  0  0  0  0  0  0  0
    6.2108   -9.1866    5.4471 C   0  0  0  0  0  0  0  0  0  0  0  0
    6.2145   -7.8447    5.0890 C   0  0  0  0  0  0  0  0  0  0  0  0
    6.5400   -6.9366    6.0259 N   0  0  0  0  0  0  0  0  0  0  0  0
    6.4688   -5.6291    5.7013 C   0  0  0  0  0  0  0  0  0  0  0  0
    6.0672   -5.1693    4.4604 C   0  0  0  0  0  0  0  0  0  0  0  0
    5.7358   -6.1086    3.4932 C   0  0  0  0  0  0  0  0  0  0  0  0
    5.3851   -5.5698    2.2701 O   0  0  0  0  0  0  0  0  0  0  0  0
    4.2394   -5.9659    1.6120 C   0  0  0  0  0  0  0  0  0  0  0  0
    4.1883   -5.6431    0.2581 C   0  0  0  0  0  0  0  0  0  0  0  0
    3.0990   -6.0386   -0.5306 C   0  0  0  0  0  0  0  0  0  0  0  0
    2.0443   -6.8217   -0.0006 C   0  0  0  0  0  0  0  0  0  0  0  0
    0.9185   -7.3090   -0.7266 C   0  0  0  0  0  0  0  0  0  0  0  0
    0.6037   -6.9899   -2.1468 C   0  0  0  0  0  0  0  0  0  0  0  0
   -0.5578   -6.6718   -2.3872 O   0  0  0  0  0  0  0  0  0  0  0  0
    1.6010   -7.1557   -3.0899 N   0  0  0  0  0  0  0  0  0  0  0  0
    1.4622   -6.9136   -4.4849 C   0  0  0  0  0  0  0  0  0  0  0  0
    0.3423   -6.3029   -5.0581 C   0  0  0  0  0  0  0  0  0  0  0  0
    0.2464   -6.1223   -6.4433 C   0  0  0  0  0  0  0  0  0  0  0  0
    1.2771   -6.5407   -7.2781 C   0  0  0  0  0  0  0  0  0  0  0  0
    2.4100   -7.1318   -6.7236 C   0  0  0  0  0  0  0  0  0  0  0  0
    2.4981   -7.3065   -5.3428 C   0  0  0  0  0  0  0  0  0  0  0  0
    3.5993   -7.8801   -4.8319 F   0  0  0  0  0  0  0  0  0  0  0  0
   -0.0799   -8.0632   -0.0783 C   0  0  0  0  0  0  0  0  0  0  0  0
    0.0124   -8.3551    1.2745 C   0  0  0  0  0  0  0  0  0  0  0  0
    1.0974   -7.8818    2.0005 C   0  0  0  0  0  0  0  0  0  0  0  0
    2.1037   -7.1176    1.3904 C   0  0  0  0  0  0  0  0  0  0  0  0
    3.1664   -6.6468    2.1811 C   0  0  0  0  0  0  0  0  0  0  0  0
    5.8422   -7.4908    3.7801 C   0  0  0  0  0  0  0  0  0  0  0  0
    5.5767   -8.5285    2.8618 C   0  0  0  0  0  0  0  0  0  0  0  0
    5.4653   -9.8636    3.2594 C   0  0  0  0  0  0  0  0  0  0  0  0
    5.0311  -10.6568    2.2351 O   0  0  0  0  0  0  0  0  0  0  0  0
    4.5113  -11.9420    2.5289 C   0  0  0  0  0  0  0  0  0  0  0  0
    4.9712  -12.6831    6.5140 H   0  0  0  0  0  0  0  0  0  0  0  0
    4.8207  -10.9584    6.8411 H   0  0  0  0  0  0  0  0  0  0  0  0
    6.4369  -11.7575    6.8845 H   0  0  0  0  0  0  0  0  0  0  0  0
    6.5423   -9.4212    6.4549 H   0  0  0  0  0  0  0  0  0  0  0  0
    6.7440   -4.9397    6.4961 H   0  0  0  0  0  0  0  0  0  0  0  0
    6.0109   -4.1056    4.2638 H   0  0  0  0  0  0  0  0  0  0  0  0
    5.0043   -5.0841   -0.1946 H   0  0  0  0  0  0  0  0  0  0  0  0
    3.0987   -5.7244   -1.5711 H   0  0  0  0  0  0  0  0  0  0  0  0
    2.4813   -7.5766   -2.8026 H   0  0  0  0  0  0  0  0  0  0  0  0
   -0.4866   -5.9447   -4.4561 H   0  0  0  0  0  0  0  0  0  0  0  0
   -0.6424   -5.6522   -6.8601 H   0  0  0  0  0  0  0  0  0  0  0  0
    1.1950   -6.4026   -8.3533 H   0  0  0  0  0  0  0  0  0  0  0  0
    3.2262   -7.4596   -7.3638 H   0  0  0  0  0  0  0  0  0  0  0  0
   -0.9515   -8.4059   -0.6344 H   0  0  0  0  0  0  0  0  0  0  0  0
   -0.7686   -8.9309    1.7635 H   0  0  0  0  0  0  0  0  0  0  0  0
    1.1497   -8.1164    3.0628 H   0  0  0  0  0  0  0  0  0  0  0  0
    3.1643   -6.8623    3.2471 H   0  0  0  0  0  0  0  0  0  0  0  0
    5.3740   -8.2991    1.8191 H   0  0  0  0  0  0  0  0  0  0  0  0
    3.9580  -12.2767    1.6444 H   0  0  0  0  0  0  0  0  0  0  0  0
    3.8012  -11.9288    3.3617 H   0  0  0  0  0  0  0  0  0  0  0  0
    5.3271  -12.6499    2.6951 H   0  0  0  0  0  0  0  0  0  0  0  0
  1  2  1  0  0  0  0
  1 36  1  0  0  0  0
  1 37  1  0  0  0  0
  1 38  1  0  0  0  0
  2  3  1  0  0  0  0
  3  4  1  0  0  0  0
  3 33  2  0  0  0  0
  4  5  2  0  0  0  0
  4 39  1  0  0  0  0
  5  6  1  0  0  0  0
  5 31  1  0  0  0  0
  6  7  2  0  0  0  0
  7  8  1  0  0  0  0
  7 40  1  0  0  0  0
  8  9  2  0  0  0  0
  8 41  1  0  0  0  0
  9 10  1  0  0  0  0
  9 31  1  0  0  0  0
 10 11  1  0  0  0  0
 11 12  1  0  0  0  0
 11 30  2  0  0  0  0
 12 13  2  0  0  0  0
 12 42  1  0  0  0  0
 13 14  1  0  0  0  0
 13 43  1  0  0  0  0
 14 15  1  0  0  0  0
 14 29  2  0  0  0  0
 15 16  1  0  0  0  0
 15 26  2  0  0  0  0
 16 17  2  0  0  0  0
 16 18  1  0  0  0  0
 18 19  1  0  0  0  0
 18 44  1  0  0  0  0
 19 20  1  0  0  0  0
 19 24  2  0  0  0  0
 20 21  2  0  0  0  0
 20 45  1  0  0  0  0
 21 22  1  0  0  0  0
 21 46  1  0  0  0  0
 22 23  2  0  0  0  0
 22 47  1  0  0  0  0
 23 24  1  0  0  0  0
 23 48  1  0  0  0  0
 24 25  1  0  0  0  0
 26 27  1  0  0  0  0
 26 49  1  0  0  0  0
 27 28  2  0  0  0  0
 27 50  1  0  0  0  0
 28 29  1  0  0  0  0
 28 51  1  0  0  0  0
 29 30  1  0  0  0  0
 30 52  1  0  0  0  0
 31 32  2  0  0  0  0
 32 33  1  0  0  0  0
 32 53  1  0  0  0  0
 33 34  1  0  0  0  0
 34 35  1  0  0  0  0
 35 54  1  0  0  0  0
 35 55  1  0  0  0  0
 35 56  1  0  0  0  0
M  END
$$$$
