CHEMBL4159645
 OpenBabel04072215383D

 58 62  0  0  0  0  0  0  0  0999 V2000
    0.9316    0.1170    0.1278 O   0  0  0  0  0  0  0  0  0  0  0  0
    2.1632    0.0049    0.1931 C   0  0  0  0  0  0  0  0  0  0  0  0
    2.8378   -0.8281    1.0849 N   0  0  0  0  0  0  0  0  0  0  0  0
    2.2374   -1.6975    2.0253 C   0  0  0  0  0  0  0  0  0  0  0  0
    0.8739   -1.9855    2.0362 C   0  0  0  0  0  0  0  0  0  0  0  0
    0.3238   -2.8676    2.9750 C   0  0  0  0  0  0  0  0  0  0  0  0
    1.1148   -3.4975    3.9451 C   0  0  0  0  0  0  0  0  0  0  0  0
    0.5340   -4.5329    4.8351 C   0  0  0  0  0  0  0  0  0  0  0  0
    1.2722   -5.6987    5.1327 C   0  0  0  0  0  0  0  0  0  0  0  0
    0.6800   -6.7998    5.7490 C   0  0  0  0  0  0  0  0  0  0  0  0
   -0.6413   -6.7040    6.1591 C   0  0  0  0  0  0  0  0  0  0  0  0
   -1.3909   -7.8578    6.7144 C   0  0  0  0  0  0  0  0  0  0  0  0
   -1.1554   -8.9834    6.2769 O   0  0  0  0  0  0  0  0  0  0  0  0
   -2.3354   -7.5865    7.6777 N   0  0  0  0  0  0  0  0  0  0  0  0
   -2.8764   -6.4132    7.6049 C   0  0  0  0  0  0  0  0  0  0  0  0
   -2.6019   -5.4292    6.6889 N   0  0  0  0  0  0  0  0  0  0  0  0
   -1.3459   -5.4991    6.0664 C   0  0  0  0  0  0  0  0  0  0  0  0
   -0.7865   -4.4454    5.3362 C   0  0  0  0  0  0  0  0  0  0  0  0
    2.4863   -3.1843    3.9394 C   0  0  0  0  0  0  0  0  0  0  0  0
    3.0446   -2.3154    2.9831 C   0  0  0  0  0  0  0  0  0  0  0  0
    3.0468    0.8492   -0.7616 C   0  0  0  0  0  0  0  0  0  0  0  0
    3.1109    0.0293   -2.0885 C   0  0  0  0  0  0  0  0  0  0  0  0
    4.1838   -0.4660   -2.4559 O   0  0  0  0  0  0  0  0  0  0  0  0
    1.9175   -0.0799   -2.8093 N   0  0  0  0  0  0  0  0  0  0  0  0
    1.7521   -0.7910   -4.0259 C   0  0  0  0  0  0  0  0  0  0  0  0
    2.7030   -1.6855   -4.5108 C   0  0  0  0  0  0  0  0  0  0  0  0
    2.5537   -2.2910   -5.7585 C   0  0  0  0  0  0  0  0  0  0  0  0
    1.4340   -2.0294   -6.5468 C   0  0  0  0  0  0  0  0  0  0  0  0
    1.4057   -2.7871   -8.0958 Cl  0  0  0  0  0  0  0  0  0  0  0  0
    0.4268   -1.1873   -6.0661 C   0  0  0  0  0  0  0  0  0  0  0  0
   -0.8380   -0.8813   -6.8324 C   0  0  0  0  0  0  0  0  0  0  0  0
   -0.9424   -1.4033   -8.0830 F   0  0  0  0  0  0  0  0  0  0  0  0
   -1.9465   -1.3124   -6.1663 F   0  0  0  0  0  0  0  0  0  0  0  0
   -1.0156    0.4641   -6.9910 F   0  0  0  0  0  0  0  0  0  0  0  0
    0.5948   -0.5837   -4.7897 C   0  0  0  0  0  0  0  0  0  0  0  0
    4.4293    1.3934   -0.2455 C   0  0  0  0  0  0  0  0  0  0  0  0
    4.0946    2.7544   -0.8736 C   0  0  0  0  0  0  0  0  0  0  0  0
    2.6166    2.3551   -0.8540 C   0  0  0  0  0  0  0  0  0  0  0  0
    3.8529   -0.8040    1.0797 H   0  0  0  0  0  0  0  0  0  0  0  0
    0.1951   -1.5766    1.2963 H   0  0  0  0  0  0  0  0  0  0  0  0
   -0.7385   -3.0850    2.8923 H   0  0  0  0  0  0  0  0  0  0  0  0
    2.3110   -5.7904    4.8242 H   0  0  0  0  0  0  0  0  0  0  0  0
    1.2397   -7.7164    5.9091 H   0  0  0  0  0  0  0  0  0  0  0  0
   -3.6127   -6.1030    8.3644 H   0  0  0  0  0  0  0  0  0  0  0  0
   -2.9984   -4.5081    6.8276 H   0  0  0  0  0  0  0  0  0  0  0  0
   -1.3782   -3.5498    5.1570 H   0  0  0  0  0  0  0  0  0  0  0  0
    3.1531   -3.6303    4.6757 H   0  0  0  0  0  0  0  0  0  0  0  0
    4.1169   -2.1366    3.0130 H   0  0  0  0  0  0  0  0  0  0  0  0
    1.1081    0.4174   -2.4472 H   0  0  0  0  0  0  0  0  0  0  0  0
    3.5864   -1.9523   -3.9391 H   0  0  0  0  0  0  0  0  0  0  0  0
    3.3350   -2.9628   -6.1078 H   0  0  0  0  0  0  0  0  0  0  0  0
   -0.1869    0.0818   -4.4234 H   0  0  0  0  0  0  0  0  0  0  0  0
    5.3262    0.9250   -0.6620 H   0  0  0  0  0  0  0  0  0  0  0  0
    4.5363    1.4271    0.8441 H   0  0  0  0  0  0  0  0  0  0  0  0
    4.4951    2.8931   -1.8837 H   0  0  0  0  0  0  0  0  0  0  0  0
    4.3556    3.6255   -0.2667 H   0  0  0  0  0  0  0  0  0  0  0  0
    2.0452    2.6468   -1.7390 H   0  0  0  0  0  0  0  0  0  0  0  0
    2.0848    2.7181    0.0351 H   0  0  0  0  0  0  0  0  0  0  0  0
  1  2  2  0  0  0  0
  2  3  1  0  0  0  0
  2 21  1  0  0  0  0
  3  4  1  0  0  0  0
  3 39  1  0  0  0  0
  4  5  1  0  0  0  0
  4 20  2  0  0  0  0
  5  6  2  0  0  0  0
  5 40  1  0  0  0  0
  6  7  1  0  0  0  0
  6 41  1  0  0  0  0
  7  8  1  0  0  0  0
  7 19  2  0  0  0  0
  8  9  1  0  0  0  0
  8 18  2  0  0  0  0
  9 10  2  0  0  0  0
  9 42  1  0  0  0  0
 10 11  1  0  0  0  0
 10 43  1  0  0  0  0
 11 12  1  0  0  0  0
 11 17  2  0  0  0  0
 12 13  2  0  0  0  0
 12 14  1  0  0  0  0
 14 15  2  0  0  0  0
 15 16  1  0  0  0  0
 15 44  1  0  0  0  0
 16 17  1  0  0  0  0
 16 45  1  0  0  0  0
 17 18  1  0  0  0  0
 18 46  1  0  0  0  0
 19 20  1  0  0  0  0
 19 47  1  0  0  0  0
 20 48  1  0  0  0  0
 21 22  1  0  0  0  0
 21 36  1  0  0  0  0
 21 38  1  0  0  0  0
 22 23  2  0  0  0  0
 22 24  1  0  0  0  0
 24 25  1  0  0  0  0
 24 49  1  0  0  0  0
 25 26  1  0  0  0  0
 25 35  2  0  0  0  0
 26 27  2  0  0  0  0
 26 50  1  0  0  0  0
 27 28  1  0  0  0  0
 27 51  1  0  0  0  0
 28 29  1  0  0  0  0
 28 30  2  0  0  0  0
 30 31  1  0  0  0  0
 30 35  1  0  0  0  0
 31 32  1  0  0  0  0
 31 33  1  0  0  0  0
 31 34  1  0  0  0  0
 35 52  1  0  0  0  0
 36 37  1  0  0  0  0
 36 53  1  0  0  0  0
 36 54  1  0  0  0  0
 37 38  1  0  0  0  0
 37 55  1  0  0  0  0
 37 56  1  0  0  0  0
 38 57  1  0  0  0  0
 38 58  1  0  0  0  0
M  END
$$$$
