CHEMBL3753316
 OpenBabel04072215373D

 61 65  0  0  0  0  0  0  0  0999 V2000
    4.4909   -9.1514   -6.1216 C   0  0  0  0  0  0  0  0  0  0  0  0
    4.7269   -8.5499   -7.3933 O   0  0  0  0  0  0  0  0  0  0  0  0
    4.8148   -7.1831   -7.4145 C   0  0  0  0  0  0  0  0  0  0  0  0
    4.6779   -6.3646   -6.3029 C   0  0  0  0  0  0  0  0  0  0  0  0
    4.7944   -4.9737   -6.4273 C   0  0  0  0  0  0  0  0  0  0  0  0
    5.0574   -4.3660   -7.6566 C   0  0  0  0  0  0  0  0  0  0  0  0
    5.1973   -2.9593   -7.7967 N   0  0  0  0  0  0  0  0  0  0  0  0
    5.3170   -2.0587   -6.7502 C   0  0  0  0  0  0  0  0  0  0  0  0
    5.4403   -2.3623   -5.5621 O   0  0  0  0  0  0  0  0  0  0  0  0
    5.4102   -0.5766   -7.1192 C   0  0  0  0  0  0  0  0  0  0  0  0
    4.7042   -0.1692   -8.3552 N   0  0  0  0  0  0  0  0  0  0  0  0
    4.9034    1.2876   -8.5666 C   0  0  0  0  0  0  0  0  0  0  0  0
    4.2074    2.2429   -7.5639 C   0  0  0  0  0  0  0  0  0  0  0  0
    2.8695    1.8341   -7.1087 N   0  0  0  0  0  0  0  0  0  0  0  0
    1.9506    2.7623   -6.5958 C   0  0  0  0  0  0  0  0  0  0  0  0
    0.6387    2.5728   -6.8552 N   0  0  0  0  0  0  0  0  0  0  0  0
   -0.3245    3.5338   -6.5525 N   0  0  0  0  0  0  0  0  0  0  0  0
    0.0245    4.7430   -6.0620 C   0  0  0  0  0  0  0  0  0  0  0  0
   -1.1193    5.6643   -5.7862 C   0  0  0  0  0  0  0  0  0  0  0  0
   -1.1326    6.5713   -4.7041 C   0  0  0  0  0  0  0  0  0  0  0  0
   -2.1727    7.4885   -4.5078 C   0  0  0  0  0  0  0  0  0  0  0  0
   -3.2751    7.4766   -5.3503 C   0  0  0  0  0  0  0  0  0  0  0  0
   -3.3387    6.5401   -6.3770 C   0  0  0  0  0  0  0  0  0  0  0  0
   -2.2737    5.6532   -6.5958 C   0  0  0  0  0  0  0  0  0  0  0  0
    1.3849    5.0147   -5.7973 C   0  0  0  0  0  0  0  0  0  0  0  0
    1.8831    6.2911   -5.4171 C   0  0  0  0  0  0  0  0  0  0  0  0
    3.1890    6.4836   -4.9722 C   0  0  0  0  0  0  0  0  0  0  0  0
    4.0278    5.3917   -4.8620 C   0  0  0  0  0  0  0  0  0  0  0  0
    3.5901    4.1538   -5.3200 C   0  0  0  0  0  0  0  0  0  0  0  0
    2.3233    3.9554   -5.9225 C   0  0  0  0  0  0  0  0  0  0  0  0
    2.4436    0.4345   -7.2348 C   0  0  0  0  0  0  0  0  0  0  0  0
    3.2373   -0.3678   -8.2962 C   0  0  0  0  0  0  0  0  0  0  0  0
    5.1649   -5.1878   -8.7831 C   0  0  0  0  0  0  0  0  0  0  0  0
    5.0535   -6.5892   -8.6576 C   0  0  0  0  0  0  0  0  0  0  0  0
    4.4308  -10.2338   -6.2613 H   0  0  0  0  0  0  0  0  0  0  0  0
    3.5362   -8.8164   -5.6998 H   0  0  0  0  0  0  0  0  0  0  0  0
    5.3184   -8.9484   -5.4308 H   0  0  0  0  0  0  0  0  0  0  0  0
    4.4852   -6.7536   -5.3082 H   0  0  0  0  0  0  0  0  0  0  0  0
    4.6595   -4.3971   -5.5188 H   0  0  0  0  0  0  0  0  0  0  0  0
    5.2649   -2.5693   -8.7322 H   0  0  0  0  0  0  0  0  0  0  0  0
    6.4828   -0.3719   -7.2327 H   0  0  0  0  0  0  0  0  0  0  0  0
    5.0551   -0.0137   -6.2484 H   0  0  0  0  0  0  0  0  0  0  0  0
    4.5687    1.5374   -9.5805 H   0  0  0  0  0  0  0  0  0  0  0  0
    5.9790    1.5164   -8.5619 H   0  0  0  0  0  0  0  0  0  0  0  0
    4.1552    3.2339   -8.0337 H   0  0  0  0  0  0  0  0  0  0  0  0
    4.8786    2.3065   -6.7063 H   0  0  0  0  0  0  0  0  0  0  0  0
   -0.3195    6.5841   -3.9815 H   0  0  0  0  0  0  0  0  0  0  0  0
   -2.1176    8.2065   -3.6935 H   0  0  0  0  0  0  0  0  0  0  0  0
   -4.0933    8.1751   -5.1929 H   0  0  0  0  0  0  0  0  0  0  0  0
   -4.2177    6.4978   -7.0171 H   0  0  0  0  0  0  0  0  0  0  0  0
   -2.3553    4.9394   -7.4148 H   0  0  0  0  0  0  0  0  0  0  0  0
    1.2500    7.1751   -5.4722 H   0  0  0  0  0  0  0  0  0  0  0  0
    3.5268    7.4721   -4.6742 H   0  0  0  0  0  0  0  0  0  0  0  0
    5.0237    5.5009   -4.4430 H   0  0  0  0  0  0  0  0  0  0  0  0
    4.2483    3.3074   -5.1544 H   0  0  0  0  0  0  0  0  0  0  0  0
    1.3862    0.3547   -7.5133 H   0  0  0  0  0  0  0  0  0  0  0  0
    2.5598   -0.0519   -6.2598 H   0  0  0  0  0  0  0  0  0  0  0  0
    2.8449   -0.0952   -9.2867 H   0  0  0  0  0  0  0  0  0  0  0  0
    3.0037   -1.4320   -8.1919 H   0  0  0  0  0  0  0  0  0  0  0  0
    5.3676   -4.7734   -9.7678 H   0  0  0  0  0  0  0  0  0  0  0  0
    5.1645   -7.2215   -9.5383 H   0  0  0  0  0  0  0  0  0  0  0  0
  1  2  1  0  0  0  0
  1 35  1  0  0  0  0
  1 36  1  0  0  0  0
  1 37  1  0  0  0  0
  2  3  1  0  0  0  0
  3  4  1  0  0  0  0
  3 34  2  0  0  0  0
  4  5  2  0  0  0  0
  4 38  1  0  0  0  0
  5  6  1  0  0  0  0
  5 39  1  0  0  0  0
  6  7  1  0  0  0  0
  6 33  2  0  0  0  0
  7  8  1  0  0  0  0
  7 40  1  0  0  0  0
  8  9  2  0  0  0  0
  8 10  1  0  0  0  0
 10 11  1  0  0  0  0
 10 41  1  0  0  0  0
 10 42  1  0  0  0  0
 11 12  1  0  0  0  0
 11 32  1  0  0  0  0
 12 13  1  0  0  0  0
 12 43  1  0  0  0  0
 12 44  1  0  0  0  0
 13 14  1  0  0  0  0
 13 45  1  0  0  0  0
 13 46  1  0  0  0  0
 14 15  1  0  0  0  0
 14 31  1  0  0  0  0
 15 16  1  0  0  0  0
 15 30  2  0  0  0  0
 16 17  2  0  0  0  0
 17 18  1  0  0  0  0
 18 19  1  0  0  0  0
 18 25  2  0  0  0  0
 19 20  1  0  0  0  0
 19 24  2  0  0  0  0
 20 21  2  0  0  0  0
 20 47  1  0  0  0  0
 21 22  1  0  0  0  0
 21 48  1  0  0  0  0
 22 23  2  0  0  0  0
 22 49  1  0  0  0  0
 23 24  1  0  0  0  0
 23 50  1  0  0  0  0
 24 51  1  0  0  0  0
 25 26  1  0  0  0  0
 25 30  1  0  0  0  0
 26 27  2  0  0  0  0
 26 52  1  0  0  0  0
 27 28  1  0  0  0  0
 27 53  1  0  0  0  0
 28 29  2  0  0  0  0
 28 54  1  0  0  0  0
 29 30  1  0  0  0  0
 29 55  1  0  0  0  0
 31 32  1  0  0  0  0
 31 56  1  0  0  0  0
 31 57  1  0  0  0  0
 32 58  1  0  0  0  0
 32 59  1  0  0  0  0
 33 34  1  0  0  0  0
 33 60  1  0  0  0  0
 34 61  1  0  0  0  0
M  END
$$$$
