CHEMBL3904329
 OpenBabel04072215373D

 56 59  0  0  1  0  0  0  0  0999 V2000
    1.2155   -3.0486    3.4534 C   0  0  0  0  0  0  0  0  0  0  0  0
    2.4359   -2.4244    3.8555 O   0  0  0  0  0  0  0  0  0  0  0  0
    3.2364   -1.9158    2.8612 C   0  0  0  0  0  0  0  0  0  0  0  0
    2.8867   -1.8812    1.5121 C   0  0  0  0  0  0  0  0  0  0  0  0
    3.7483   -1.2883    0.5935 C   0  0  0  0  0  0  0  0  0  0  0  0
    3.4929   -1.1648   -0.7473 O   0  0  0  0  0  0  0  0  0  0  0  0
    2.1172   -1.1211   -1.1161 C   0  0  0  0  0  0  0  0  0  0  0  0
    4.9860   -0.7835    1.0156 C   0  0  0  0  0  0  0  0  0  0  0  0
    5.3891   -0.8140    2.3612 C   0  0  0  0  0  0  0  0  0  0  0  0
    6.5849   -0.2022    2.8209 N   0  0  0  0  0  0  0  0  0  0  0  0
    7.1158    0.9614    2.0051 C   0  0  0  0  0  0  0  0  0  0  0  0
    6.2251    2.2237    1.8770 C   0  0  3  0  0  0  0  0  0  0  0  0
    5.9529    2.9890    3.1652 C   0  0  0  0  0  0  0  0  0  0  0  0
    6.8711    3.1420    0.9654 O   0  0  0  0  0  0  0  0  0  0  0  0
    7.7179   -0.8163    3.4903 C   0  0  0  0  0  0  0  0  0  0  0  0
    8.4119    0.0248    4.3451 C   0  0  0  0  0  0  0  0  0  0  0  0
    9.7550   -0.1904    4.5940 C   0  0  0  0  0  0  0  0  0  0  0  0
   10.3912   -1.3276    4.1610 C   0  0  0  0  0  0  0  0  0  0  0  0
   11.7137   -1.2974    4.3386 N   0  0  0  0  0  0  0  0  0  0  0  0
   12.3746   -2.4411    4.1352 C   0  0  0  0  0  0  0  0  0  0  0  0
   11.7163   -3.6149    3.8318 C   0  0  0  0  0  0  0  0  0  0  0  0
   12.4869   -4.8435    4.0110 C   0  0  0  0  0  0  0  0  0  0  0  0
   12.5276   -5.7139    5.1366 C   0  0  0  0  0  0  0  0  0  0  0  0
   13.5210   -6.6089    5.0641 N   0  0  0  0  0  0  0  0  0  0  0  0
   14.1234   -6.3084    3.9014 N   0  0  0  0  0  0  0  0  0  0  0  0
   15.0270   -7.2472    3.2792 C   0  0  0  0  0  0  0  0  0  0  0  0
   13.6607   -5.1467    3.3456 C   0  0  0  0  0  0  0  0  0  0  0  0
   10.3737   -3.6191    3.5113 N   0  0  0  0  0  0  0  0  0  0  0  0
    9.6680   -2.4152    3.6134 C   0  0  0  0  0  0  0  0  0  0  0  0
    8.2994   -2.0926    3.2138 C   0  0  0  0  0  0  0  0  0  0  0  0
    4.4773   -1.3827    3.2752 C   0  0  0  0  0  0  0  0  0  0  0  0
    0.7115   -3.4273    4.3485 H   0  0  0  0  0  0  0  0  0  0  0  0
    1.4057   -3.9052    2.7965 H   0  0  0  0  0  0  0  0  0  0  0  0
    0.5360   -2.3334    2.9746 H   0  0  0  0  0  0  0  0  0  0  0  0
    1.9560   -2.3122    1.1709 H   0  0  0  0  0  0  0  0  0  0  0  0
    2.0606   -0.8314   -2.1699 H   0  0  0  0  0  0  0  0  0  0  0  0
    1.5705   -0.3698   -0.5339 H   0  0  0  0  0  0  0  0  0  0  0  0
    1.6499   -2.1065   -1.0201 H   0  0  0  0  0  0  0  0  0  0  0  0
    5.6226   -0.3443    0.2540 H   0  0  0  0  0  0  0  0  0  0  0  0
    7.4050    0.6052    1.0106 H   0  0  0  0  0  0  0  0  0  0  0  0
    8.0668    1.3412    2.4067 H   0  0  0  0  0  0  0  0  0  0  0  0
    5.2694    1.9691    1.4088 H   0  0  0  0  0  0  0  0  0  0  0  0
    6.8475    3.5171    3.5268 H   0  0  0  0  0  0  0  0  0  0  0  0
    5.5633    2.3584    3.9618 H   0  0  0  0  0  0  0  0  0  0  0  0
    5.2168    3.7841    2.9655 H   0  0  0  0  0  0  0  0  0  0  0  0
    7.4612    3.7262    1.4748 H   0  0  0  0  0  0  0  0  0  0  0  0
    7.9672    0.9482    4.6880 H   0  0  0  0  0  0  0  0  0  0  0  0
   10.3321    0.5777    5.0965 H   0  0  0  0  0  0  0  0  0  0  0  0
   13.4449   -2.3946    4.2886 H   0  0  0  0  0  0  0  0  0  0  0  0
   11.8997   -5.7152    6.0183 H   0  0  0  0  0  0  0  0  0  0  0  0
   15.1109   -8.1480    3.8932 H   0  0  0  0  0  0  0  0  0  0  0  0
   16.0061   -6.7817    3.1464 H   0  0  0  0  0  0  0  0  0  0  0  0
   14.5951   -7.5092    2.3091 H   0  0  0  0  0  0  0  0  0  0  0  0
   14.1736   -4.6826    2.5151 H   0  0  0  0  0  0  0  0  0  0  0  0
    7.7557   -2.8394    2.6339 H   0  0  0  0  0  0  0  0  0  0  0  0
    4.7043   -1.3688    4.3394 H   0  0  0  0  0  0  0  0  0  0  0  0
  1  2  1  0  0  0  0
  1 32  1  0  0  0  0
  1 33  1  0  0  0  0
  1 34  1  0  0  0  0
  2  3  1  0  0  0  0
  3  4  1  0  0  0  0
  3 31  2  0  0  0  0
  4  5  2  0  0  0  0
  4 35  1  0  0  0  0
  5  6  1  0  0  0  0
  5  8  1  0  0  0  0
  6  7  1  0  0  0  0
  7 36  1  0  0  0  0
  7 37  1  0  0  0  0
  7 38  1  0  0  0  0
  8  9  2  0  0  0  0
  8 39  1  0  0  0  0
  9 10  1  0  0  0  0
  9 31  1  0  0  0  0
 10 11  1  0  0  0  0
 10 15  1  0  0  0  0
 11 12  1  0  0  0  0
 11 40  1  0  0  0  0
 11 41  1  0  0  0  0
 12 13  1  0  0  0  0
 12 14  1  0  0  0  0
 12 42  1  0  0  0  0
 13 43  1  0  0  0  0
 13 44  1  0  0  0  0
 13 45  1  0  0  0  0
 14 46  1  0  0  0  0
 15 16  1  0  0  0  0
 15 30  2  0  0  0  0
 16 17  2  0  0  0  0
 16 47  1  0  0  0  0
 17 18  1  0  0  0  0
 17 48  1  0  0  0  0
 18 19  1  0  0  0  0
 18 29  2  0  0  0  0
 19 20  2  0  0  0  0
 20 21  1  0  0  0  0
 20 49  1  0  0  0  0
 21 22  1  0  0  0  0
 21 28  2  0  0  0  0
 22 23  1  0  0  0  0
 22 27  2  0  0  0  0
 23 24  2  0  0  0  0
 23 50  1  0  0  0  0
 24 25  1  0  0  0  0
 25 26  1  0  0  0  0
 25 27  1  0  0  0  0
 26 51  1  0  0  0  0
 26 52  1  0  0  0  0
 26 53  1  0  0  0  0
 27 54  1  0  0  0  0
 28 29  1  0  0  0  0
 29 30  1  0  0  0  0
 30 55  1  0  0  0  0
 31 56  1  0  0  0  0
M  END
$$$$
