CHEMBL3690545
 OpenBabel04072215373D

 69 73  0  0  0  0  0  0  0  0999 V2000
   -2.0698   -0.1159    1.3225 C   0  0  0  0  0  0  0  0  0  0  0  0
   -0.7327   -0.0470    0.6508 C   0  0  0  0  0  0  0  0  0  0  0  0
   -0.1063    1.1444    0.6504 N   0  0  0  0  0  0  0  0  0  0  0  0
    1.0873    1.1922    0.0356 C   0  0  0  0  0  0  0  0  0  0  0  0
    1.7858    2.5036    0.0038 C   0  0  0  0  0  0  0  0  0  0  0  0
    1.6225    3.5037    1.0638 C   0  0  0  0  0  0  0  0  0  0  0  0
    2.2695    4.6809    0.9897 C   0  0  0  0  0  0  0  0  0  0  0  0
    3.0763    4.9625   -0.1147 N   0  0  0  0  0  0  0  0  0  0  0  0
    3.8202    6.0876   -0.4580 C   0  0  0  0  0  0  0  0  0  0  0  0
    3.9553    7.3525    0.2755 C   0  0  0  0  0  0  0  0  0  0  0  0
    5.1873    8.0210    0.2186 C   0  0  0  0  0  0  0  0  0  0  0  0
    5.3655    9.2475    0.8450 C   0  0  0  0  0  0  0  0  0  0  0  0
    4.3099    9.8309    1.5399 C   0  0  0  0  0  0  0  0  0  0  0  0
    3.0610    9.2112    1.5991 C   0  0  0  0  0  0  0  0  0  0  0  0
    1.9474    9.7882    2.2632 N   0  0  0  0  0  0  0  0  0  0  0  0
    1.9035   11.0460    2.8226 C   0  0  0  0  0  0  0  0  0  0  0  0
    2.7897   11.8834    2.8243 O   0  0  0  0  0  0  0  0  0  0  0  0
    0.7113   11.2996    3.4676 N   0  0  0  0  0  0  0  0  0  0  0  0
    0.5364   12.6232    4.0819 C   0  0  0  0  0  0  0  0  0  0  0  0
    0.1976   13.7771    3.1242 C   0  0  0  0  0  0  0  0  0  0  0  0
   -0.0531   13.3402    1.8682 F   0  0  0  0  0  0  0  0  0  0  0  0
   -0.9272   14.4083    3.5479 F   0  0  0  0  0  0  0  0  0  0  0  0
    1.1757   14.7031    3.0630 F   0  0  0  0  0  0  0  0  0  0  0  0
    2.8937    7.9666    0.9663 C   0  0  0  0  0  0  0  0  0  0  0  0
    4.4434    5.7212   -1.6465 C   0  0  0  0  0  0  0  0  0  0  0  0
    4.0984    4.4666   -2.0543 N   0  0  0  0  0  0  0  0  0  0  0  0
    3.2702    4.0373   -1.1357 C   0  0  0  0  0  0  0  0  0  0  0  0
    2.5848    2.7953   -1.0527 C   0  0  0  0  0  0  0  0  0  0  0  0
    1.6457    0.0747   -0.5388 C   0  0  0  0  0  0  0  0  0  0  0  0
    0.9179   -1.0971   -0.5429 C   0  0  0  0  0  0  0  0  0  0  0  0
    1.4810   -2.1867   -1.1883 N   0  0  0  0  0  0  0  0  0  0  0  0
    1.0747   -3.5432   -0.8237 C   0  0  0  0  0  0  0  0  0  0  0  0
    2.2122   -4.5132   -1.2717 C   0  0  0  0  0  0  0  0  0  0  0  0
    2.6398   -4.4045   -2.7030 N   0  0  0  0  0  0  0  0  0  0  0  0
    1.6082   -4.9898   -3.5877 C   0  0  0  0  0  0  0  0  0  0  0  0
    1.9859   -4.9732   -5.0794 C   0  0  0  0  0  0  0  0  0  0  0  0
    3.2424   -5.6078   -5.2911 O   0  0  0  0  0  0  0  0  0  0  0  0
    2.9111   -2.9750   -2.9975 C   0  0  0  0  0  0  0  0  0  0  0  0
    1.7624   -2.0174   -2.6212 C   0  0  0  0  0  0  0  0  0  0  0  0
   -0.2665   -1.1773    0.0776 N   0  0  0  0  0  0  0  0  0  0  0  0
   -2.3462    0.8563    1.7433 H   0  0  0  0  0  0  0  0  0  0  0  0
   -2.0455   -0.8483    2.1332 H   0  0  0  0  0  0  0  0  0  0  0  0
   -2.8353   -0.4072    0.5985 H   0  0  0  0  0  0  0  0  0  0  0  0
    0.9786    3.2618    1.9014 H   0  0  0  0  0  0  0  0  0  0  0  0
    2.1859    5.4232    1.7721 H   0  0  0  0  0  0  0  0  0  0  0  0
    6.0301    7.5965   -0.3238 H   0  0  0  0  0  0  0  0  0  0  0  0
    6.3227    9.7588    0.7883 H   0  0  0  0  0  0  0  0  0  0  0  0
    4.5079   10.7823    2.0227 H   0  0  0  0  0  0  0  0  0  0  0  0
    1.1060    9.2364    2.3074 H   0  0  0  0  0  0  0  0  0  0  0  0
   -0.1147   10.8524    3.0963 H   0  0  0  0  0  0  0  0  0  0  0  0
    1.4523   12.8759    4.6295 H   0  0  0  0  0  0  0  0  0  0  0  0
   -0.2602   12.5134    4.8246 H   0  0  0  0  0  0  0  0  0  0  0  0
    1.9145    7.4974    0.9765 H   0  0  0  0  0  0  0  0  0  0  0  0
    5.1271    6.3188   -2.2365 H   0  0  0  0  0  0  0  0  0  0  0  0
    2.7419    2.1208   -1.8859 H   0  0  0  0  0  0  0  0  0  0  0  0
    2.6397    0.0883   -0.9662 H   0  0  0  0  0  0  0  0  0  0  0  0
    0.1248   -3.8115   -1.3021 H   0  0  0  0  0  0  0  0  0  0  0  0
    0.9461   -3.6382    0.2611 H   0  0  0  0  0  0  0  0  0  0  0  0
    1.9390   -5.5478   -1.0342 H   0  0  0  0  0  0  0  0  0  0  0  0
    3.0970   -4.2935   -0.6571 H   0  0  0  0  0  0  0  0  0  0  0  0
    0.6348   -4.5043   -3.4640 H   0  0  0  0  0  0  0  0  0  0  0  0
    1.4885   -6.0412   -3.2976 H   0  0  0  0  0  0  0  0  0  0  0  0
    2.0433   -3.9545   -5.4744 H   0  0  0  0  0  0  0  0  0  0  0  0
    1.2292   -5.5063   -5.6622 H   0  0  0  0  0  0  0  0  0  0  0  0
    3.8171   -5.2997   -4.5634 H   0  0  0  0  0  0  0  0  0  0  0  0
    3.1938   -2.8281   -4.0444 H   0  0  0  0  0  0  0  0  0  0  0  0
    3.8012   -2.6812   -2.4233 H   0  0  0  0  0  0  0  0  0  0  0  0
    0.8614   -2.2304   -3.2117 H   0  0  0  0  0  0  0  0  0  0  0  0
    2.0691   -0.9978   -2.8789 H   0  0  0  0  0  0  0  0  0  0  0  0
  1  2  1  0  0  0  0
  1 41  1  0  0  0  0
  1 42  1  0  0  0  0
  1 43  1  0  0  0  0
  2  3  1  0  0  0  0
  2 40  2  0  0  0  0
  3  4  2  0  0  0  0
  4  5  1  0  0  0  0
  4 29  1  0  0  0  0
  5  6  1  0  0  0  0
  5 28  2  0  0  0  0
  6  7  2  0  0  0  0
  6 44  1  0  0  0  0
  7  8  1  0  0  0  0
  7 45  1  0  0  0  0
  8  9  1  0  0  0  0
  8 27  1  0  0  0  0
  9 10  1  0  0  0  0
  9 25  2  0  0  0  0
 10 11  1  0  0  0  0
 10 24  2  0  0  0  0
 11 12  2  0  0  0  0
 11 46  1  0  0  0  0
 12 13  1  0  0  0  0
 12 47  1  0  0  0  0
 13 14  2  0  0  0  0
 13 48  1  0  0  0  0
 14 15  1  0  0  0  0
 14 24  1  0  0  0  0
 15 16  1  0  0  0  0
 15 49  1  0  0  0  0
 16 17  2  0  0  0  0
 16 18  1  0  0  0  0
 18 19  1  0  0  0  0
 18 50  1  0  0  0  0
 19 20  1  0  0  0  0
 19 51  1  0  0  0  0
 19 52  1  0  0  0  0
 20 21  1  0  0  0  0
 20 22  1  0  0  0  0
 20 23  1  0  0  0  0
 24 53  1  0  0  0  0
 25 26  1  0  0  0  0
 25 54  1  0  0  0  0
 26 27  2  0  0  0  0
 27 28  1  0  0  0  0
 28 55  1  0  0  0  0
 29 30  2  0  0  0  0
 29 56  1  0  0  0  0
 30 31  1  0  0  0  0
 30 40  1  0  0  0  0
 31 32  1  0  0  0  0
 31 39  1  0  0  0  0
 32 33  1  0  0  0  0
 32 57  1  0  0  0  0
 32 58  1  0  0  0  0
 33 34  1  0  0  0  0
 33 59  1  0  0  0  0
 33 60  1  0  0  0  0
 34 35  1  0  0  0  0
 34 38  1  0  0  0  0
 35 36  1  0  0  0  0
 35 61  1  0  0  0  0
 35 62  1  0  0  0  0
 36 37  1  0  0  0  0
 36 63  1  0  0  0  0
 36 64  1  0  0  0  0
 37 65  1  0  0  0  0
 38 39  1  0  0  0  0
 38 66  1  0  0  0  0
 38 67  1  0  0  0  0
 39 68  1  0  0  0  0
 39 69  1  0  0  0  0
M  END
$$$$
