CHEMBL2113187
 OpenBabel04072215363D

 54 57  0  0  0  0  0  0  0  0999 V2000
    1.0636   -0.3454    0.9392 C   0  0  0  0  0  0  0  0  0  0  0  0
    2.3167   -0.0070    0.3770 O   0  0  0  0  0  0  0  0  0  0  0  0
    2.8027    1.2710    0.7995 C   0  0  0  0  0  0  0  0  0  0  0  0
    4.1184    1.4596    0.0578 C   0  0  0  0  0  0  0  0  0  0  0  0
    4.7800    2.6690    0.3632 O   0  0  0  0  0  0  0  0  0  0  0  0
    6.1376    2.7216    0.1712 C   0  0  0  0  0  0  0  0  0  0  0  0
    6.7074    3.7271    0.9871 C   0  0  0  0  0  0  0  0  0  0  0  0
    8.0745    3.9817    1.0689 C   0  0  0  0  0  0  0  0  0  0  0  0
    8.5254    4.9173    1.9131 N   0  0  0  0  0  0  0  0  0  0  0  0
    9.8475    5.1022    1.9581 C   0  0  0  0  0  0  0  0  0  0  0  0
   10.7566    4.4583    1.2169 N   0  0  0  0  0  0  0  0  0  0  0  0
   10.3029    3.5219    0.3650 C   0  0  0  0  0  0  0  0  0  0  0  0
   11.2281    2.7762   -0.4024 N   0  0  0  0  0  0  0  0  0  0  0  0
   12.6191    2.8297   -0.3234 C   0  0  0  0  0  0  0  0  0  0  0  0
   13.3495    3.2020    0.7294 C   0  0  0  0  0  0  0  0  0  0  0  0
   14.8116    3.3381    0.7062 C   0  0  0  0  0  0  0  0  0  0  0  0
   15.3634    3.9465    1.6105 O   0  0  0  0  0  0  0  0  0  0  0  0
   15.5402    2.7123   -0.4437 C   0  0  0  0  0  0  0  0  0  0  0  0
   16.9327    2.6154   -0.4967 O   0  0  0  0  0  0  0  0  0  0  0  0
   17.6820    2.5358    0.6524 C   0  0  0  0  0  0  0  0  0  0  0  0
   17.2986    1.7916    1.7762 C   0  0  0  0  0  0  0  0  0  0  0  0
   18.0851    1.8100    2.9308 C   0  0  0  0  0  0  0  0  0  0  0  0
   19.2856    2.5175    2.9425 C   0  0  0  0  0  0  0  0  0  0  0  0
   19.6933    3.1924    1.7975 C   0  0  0  0  0  0  0  0  0  0  0  0
   20.8643    3.8428    1.8008 F   0  0  0  0  0  0  0  0  0  0  0  0
   18.9043    3.2065    0.6518 C   0  0  0  0  0  0  0  0  0  0  0  0
   14.8258    2.3166   -1.5050 C   0  0  0  0  0  0  0  0  0  0  0  0
   13.3533    2.3950   -1.5558 C   0  0  0  0  0  0  0  0  0  0  0  0
   12.7421    2.0731   -2.5730 O   0  0  0  0  0  0  0  0  0  0  0  0
    8.9290    3.2242    0.2641 C   0  0  0  0  0  0  0  0  0  0  0  0
    8.3745    2.2130   -0.5515 C   0  0  0  0  0  0  0  0  0  0  0  0
    6.9952    1.9493   -0.6208 C   0  0  0  0  0  0  0  0  0  0  0  0
    6.7807    0.8467   -1.3923 O   0  0  0  0  0  0  0  0  0  0  0  0
    5.7082    0.7667   -2.3122 C   0  0  0  0  0  0  0  0  0  0  0  0
    0.7881   -1.3350    0.5628 H   0  0  0  0  0  0  0  0  0  0  0  0
    0.2990    0.3710    0.6284 H   0  0  0  0  0  0  0  0  0  0  0  0
    1.1331   -0.3920    2.0286 H   0  0  0  0  0  0  0  0  0  0  0  0
    2.9507    1.2960    1.8834 H   0  0  0  0  0  0  0  0  0  0  0  0
    2.0925    2.0598    0.5242 H   0  0  0  0  0  0  0  0  0  0  0  0
    3.8313    1.4912   -0.9927 H   0  0  0  0  0  0  0  0  0  0  0  0
    4.7534    0.5913    0.2652 H   0  0  0  0  0  0  0  0  0  0  0  0
    6.0491    4.3151    1.6284 H   0  0  0  0  0  0  0  0  0  0  0  0
   10.2224    5.8388    2.6591 H   0  0  0  0  0  0  0  0  0  0  0  0
   10.9283    2.6649   -1.3778 H   0  0  0  0  0  0  0  0  0  0  0  0
   12.8976    3.5003    1.6683 H   0  0  0  0  0  0  0  0  0  0  0  0
   16.3703    1.2297    1.7851 H   0  0  0  0  0  0  0  0  0  0  0  0
   17.7509    1.2857    3.8216 H   0  0  0  0  0  0  0  0  0  0  0  0
   19.9023    2.5475    3.8348 H   0  0  0  0  0  0  0  0  0  0  0  0
   19.2410    3.7549   -0.2210 H   0  0  0  0  0  0  0  0  0  0  0  0
   15.3080    1.9152   -2.3868 H   0  0  0  0  0  0  0  0  0  0  0  0
    9.0371    1.5789   -1.1412 H   0  0  0  0  0  0  0  0  0  0  0  0
    6.0828    0.3783   -3.2643 H   0  0  0  0  0  0  0  0  0  0  0  0
    5.2157    1.7226   -2.5096 H   0  0  0  0  0  0  0  0  0  0  0  0
    5.0088    0.0089   -1.9422 H   0  0  0  0  0  0  0  0  0  0  0  0
  1  2  1  0  0  0  0
  1 35  1  0  0  0  0
  1 36  1  0  0  0  0
  1 37  1  0  0  0  0
  2  3  1  0  0  0  0
  3  4  1  0  0  0  0
  3 38  1  0  0  0  0
  3 39  1  0  0  0  0
  4  5  1  0  0  0  0
  4 40  1  0  0  0  0
  4 41  1  0  0  0  0
  5  6  1  0  0  0  0
  6  7  1  0  0  0  0
  6 32  2  0  0  0  0
  7  8  2  0  0  0  0
  7 42  1  0  0  0  0
  8  9  1  0  0  0  0
  8 30  1  0  0  0  0
  9 10  2  0  0  0  0
 10 11  1  0  0  0  0
 10 43  1  0  0  0  0
 11 12  2  0  0  0  0
 12 13  1  0  0  0  0
 12 30  1  0  0  0  0
 13 14  1  0  0  0  0
 13 44  1  0  0  0  0
 14 15  2  0  0  0  0
 14 28  1  0  0  0  0
 15 16  1  0  0  0  0
 15 45  1  0  0  0  0
 16 17  2  0  0  0  0
 16 18  1  0  0  0  0
 18 19  1  0  0  0  0
 18 27  2  0  0  0  0
 19 20  1  0  0  0  0
 20 21  1  0  0  0  0
 20 26  2  0  0  0  0
 21 22  2  0  0  0  0
 21 46  1  0  0  0  0
 22 23  1  0  0  0  0
 22 47  1  0  0  0  0
 23 24  2  0  0  0  0
 23 48  1  0  0  0  0
 24 25  1  0  0  0  0
 24 26  1  0  0  0  0
 26 49  1  0  0  0  0
 27 28  1  0  0  0  0
 27 50  1  0  0  0  0
 28 29  2  0  0  0  0
 30 31  2  0  0  0  0
 31 32  1  0  0  0  0
 31 51  1  0  0  0  0
 32 33  1  0  0  0  0
 33 34  1  0  0  0  0
 34 52  1  0  0  0  0
 34 53  1  0  0  0  0
 34 54  1  0  0  0  0
M  END
$$$$
