CHEMBL254761
 OpenBabel04072215363D

 65 69  0  0  0  0  0  0  0  0999 V2000
   -6.4710    4.6743   -0.2744 C   0  0  0  0  0  0  0  0  0  0  0  0
   -6.8303    3.5522    0.5897 N   0  0  0  0  0  0  0  0  0  0  0  0
   -6.1229    2.3349    0.1614 C   0  0  0  0  0  0  0  0  0  0  0  0
   -6.4898    1.1277    1.0351 C   0  0  0  0  0  0  0  0  0  0  0  0
   -6.3075    1.3775    2.4689 N   0  0  0  0  0  0  0  0  0  0  0  0
   -5.9600    0.4174    3.4332 C   0  0  0  0  0  0  0  0  0  0  0  0
   -5.7719    0.7598    4.6017 O   0  0  0  0  0  0  0  0  0  0  0  0
   -5.8338   -0.9796    3.0215 C   0  0  0  0  0  0  0  0  0  0  0  0
   -6.5558   -1.6998    2.0922 C   0  0  0  0  0  0  0  0  0  0  0  0
   -6.0432   -3.0029    1.8706 C   0  0  0  0  0  0  0  0  0  0  0  0
   -6.4954   -3.8455    0.9043 N   0  0  0  0  0  0  0  0  0  0  0  0
   -5.8631   -5.0257    0.8216 C   0  0  0  0  0  0  0  0  0  0  0  0
   -4.8577   -5.4433    1.6689 C   0  0  0  0  0  0  0  0  0  0  0  0
   -4.4682   -4.6127    2.7239 C   0  0  0  0  0  0  0  0  0  0  0  0
   -3.5397   -4.9863    3.6732 O   0  0  0  0  0  0  0  0  0  0  0  0
   -3.5417   -6.2909    4.1168 C   0  0  0  0  0  0  0  0  0  0  0  0
   -4.6931   -7.0761    4.2290 C   0  0  0  0  0  0  0  0  0  0  0  0
   -4.5846   -8.4272    4.5634 C   0  0  0  0  0  0  0  0  0  0  0  0
   -3.3427   -8.9762    4.8984 C   0  0  0  0  0  0  0  0  0  0  0  0
   -3.2943  -10.3588    5.1423 N   0  0  0  0  0  0  0  0  0  0  0  0
   -2.3968  -11.1006    5.8680 C   0  0  0  0  0  0  0  0  0  0  0  0
   -1.4425  -10.5856    7.1412 S   0  0  0  0  0  0  0  0  0  0  0  0
   -2.3310  -12.4389    5.5274 N   0  0  0  0  0  0  0  0  0  0  0  0
   -3.0231  -13.1025    4.5235 C   0  0  0  0  0  0  0  0  0  0  0  0
   -3.8551  -12.5596    3.7968 O   0  0  0  0  0  0  0  0  0  0  0  0
   -2.7266  -14.5846    4.4360 C   0  0  0  0  0  0  0  0  0  0  0  0
   -1.5318  -14.9409    3.5884 C   0  0  0  0  0  0  0  0  0  0  0  0
   -0.5167  -15.7560    4.1118 C   0  0  0  0  0  0  0  0  0  0  0  0
    0.5433  -16.1779    3.3068 C   0  0  0  0  0  0  0  0  0  0  0  0
    0.6020  -15.7902    1.9703 C   0  0  0  0  0  0  0  0  0  0  0  0
   -0.3954  -14.9746    1.4398 C   0  0  0  0  0  0  0  0  0  0  0  0
   -1.4580  -14.5526    2.2427 C   0  0  0  0  0  0  0  0  0  0  0  0
   -2.2052   -8.1702    4.8686 C   0  0  0  0  0  0  0  0  0  0  0  0
   -2.3114   -6.8394    4.4728 C   0  0  0  0  0  0  0  0  0  0  0  0
   -1.1946   -6.1013    4.3888 F   0  0  0  0  0  0  0  0  0  0  0  0
   -5.0322   -3.3323    2.7686 C   0  0  0  0  0  0  0  0  0  0  0  0
   -4.6896   -1.9963    3.8029 S   0  0  0  0  0  0  0  0  0  0  0  0
   -6.8359    2.6635    2.9358 C   0  0  0  0  0  0  0  0  0  0  0  0
   -6.4885    3.8375    1.9986 C   0  0  0  0  0  0  0  0  0  0  0  0
   -6.7429    4.4562   -1.3136 H   0  0  0  0  0  0  0  0  0  0  0  0
   -5.3988    4.8980   -0.2407 H   0  0  0  0  0  0  0  0  0  0  0  0
   -7.0244    5.5738    0.0140 H   0  0  0  0  0  0  0  0  0  0  0  0
   -5.0358    2.4863    0.2014 H   0  0  0  0  0  0  0  0  0  0  0  0
   -6.3829    2.0951   -0.8766 H   0  0  0  0  0  0  0  0  0  0  0  0
   -5.8693    0.2905    0.7089 H   0  0  0  0  0  0  0  0  0  0  0  0
   -7.5458    0.8714    0.8846 H   0  0  0  0  0  0  0  0  0  0  0  0
   -7.3884   -1.3049    1.5281 H   0  0  0  0  0  0  0  0  0  0  0  0
   -6.2116   -5.6734    0.0206 H   0  0  0  0  0  0  0  0  0  0  0  0
   -4.4113   -6.4207    1.5210 H   0  0  0  0  0  0  0  0  0  0  0  0
   -5.6774   -6.6643    4.0229 H   0  0  0  0  0  0  0  0  0  0  0  0
   -5.4844   -9.0387    4.5778 H   0  0  0  0  0  0  0  0  0  0  0  0
   -4.0309  -10.9059    4.6947 H   0  0  0  0  0  0  0  0  0  0  0  0
   -1.6471  -12.9601    6.0619 H   0  0  0  0  0  0  0  0  0  0  0  0
   -3.6127  -15.0791    4.0202 H   0  0  0  0  0  0  0  0  0  0  0  0
   -2.6126  -14.9754    5.4542 H   0  0  0  0  0  0  0  0  0  0  0  0
   -0.5524  -16.0936    5.1452 H   0  0  0  0  0  0  0  0  0  0  0  0
    1.3152  -16.8238    3.7180 H   0  0  0  0  0  0  0  0  0  0  0  0
    1.4183  -16.1330    1.3397 H   0  0  0  0  0  0  0  0  0  0  0  0
   -0.3536  -14.6797    0.3937 H   0  0  0  0  0  0  0  0  0  0  0  0
   -2.2384  -13.9359    1.7990 H   0  0  0  0  0  0  0  0  0  0  0  0
   -1.2144   -8.5621    5.0650 H   0  0  0  0  0  0  0  0  0  0  0  0
   -6.4801    2.8908    3.9461 H   0  0  0  0  0  0  0  0  0  0  0  0
   -7.9258    2.5482    2.9966 H   0  0  0  0  0  0  0  0  0  0  0  0
   -5.4168    4.0583    2.0908 H   0  0  0  0  0  0  0  0  0  0  0  0
   -7.0379    4.7232    2.3388 H   0  0  0  0  0  0  0  0  0  0  0  0
  1  2  1  0  0  0  0
  1 40  1  0  0  0  0
  1 41  1  0  0  0  0
  1 42  1  0  0  0  0
  2  3  1  0  0  0  0
  2 39  1  0  0  0  0
  3  4  1  0  0  0  0
  3 43  1  0  0  0  0
  3 44  1  0  0  0  0
  4  5  1  0  0  0  0
  4 45  1  0  0  0  0
  4 46  1  0  0  0  0
  5  6  1  0  0  0  0
  5 38  1  0  0  0  0
  6  7  2  0  0  0  0
  6  8  1  0  0  0  0
  8  9  2  0  0  0  0
  8 37  1  0  0  0  0
  9 10  1  0  0  0  0
  9 47  1  0  0  0  0
 10 11  1  0  0  0  0
 10 36  2  0  0  0  0
 11 12  2  0  0  0  0
 12 13  1  0  0  0  0
 12 48  1  0  0  0  0
 13 14  2  0  0  0  0
 13 49  1  0  0  0  0
 14 15  1  0  0  0  0
 14 36  1  0  0  0  0
 15 16  1  0  0  0  0
 16 17  1  0  0  0  0
 16 34  2  0  0  0  0
 17 18  2  0  0  0  0
 17 50  1  0  0  0  0
 18 19  1  0  0  0  0
 18 51  1  0  0  0  0
 19 20  1  0  0  0  0
 19 33  2  0  0  0  0
 20 21  1  0  0  0  0
 20 52  1  0  0  0  0
 21 22  2  0  0  0  0
 21 23  1  0  0  0  0
 23 24  1  0  0  0  0
 23 53  1  0  0  0  0
 24 25  2  0  0  0  0
 24 26  1  0  0  0  0
 26 27  1  0  0  0  0
 26 54  1  0  0  0  0
 26 55  1  0  0  0  0
 27 28  1  0  0  0  0
 27 32  2  0  0  0  0
 28 29  2  0  0  0  0
 28 56  1  0  0  0  0
 29 30  1  0  0  0  0
 29 57  1  0  0  0  0
 30 31  2  0  0  0  0
 30 58  1  0  0  0  0
 31 32  1  0  0  0  0
 31 59  1  0  0  0  0
 32 60  1  0  0  0  0
 33 34  1  0  0  0  0
 33 61  1  0  0  0  0
 34 35  1  0  0  0  0
 36 37  1  0  0  0  0
 38 39  1  0  0  0  0
 38 62  1  0  0  0  0
 38 63  1  0  0  0  0
 39 64  1  0  0  0  0
 39 65  1  0  0  0  0
M  END
$$$$
