CHEMBL4074518
 OpenBabel04072215383D

 49 52  0  0  0  0  0  0  0  0999 V2000
    3.8951   -0.3945    2.2956 C   0  0  0  0  0  0  0  0  0  0  0  0
    3.0453   -0.3047    1.0378 C   0  0  0  0  0  0  0  0  0  0  0  0
    3.4696   -1.2993   -0.0113 C   0  0  0  0  0  0  0  0  0  0  0  0
    4.4512   -0.9359   -0.9434 C   0  0  0  0  0  0  0  0  0  0  0  0
    4.8358   -1.8257   -1.9349 C   0  0  0  0  0  0  0  0  0  0  0  0
    4.2681   -3.0984   -1.9836 C   0  0  0  0  0  0  0  0  0  0  0  0
    3.3439   -3.5185   -1.0192 C   0  0  0  0  0  0  0  0  0  0  0  0
    2.8395   -4.8483   -0.9738 N   0  0  0  0  0  0  0  0  0  0  0  0
    3.4712   -5.9233   -1.5804 C   0  0  0  0  0  0  0  0  0  0  0  0
    4.5196   -5.8408   -2.1958 O   0  0  0  0  0  0  0  0  0  0  0  0
    2.7749   -7.1218   -1.4168 N   0  0  0  0  0  0  0  0  0  0  0  0
    3.2683   -8.3528   -1.9216 C   0  0  0  0  0  0  0  0  0  0  0  0
    4.6273   -8.5813   -2.1386 C   0  0  0  0  0  0  0  0  0  0  0  0
    5.0741   -9.7324   -2.7871 C   0  0  0  0  0  0  0  0  0  0  0  0
    4.1816  -10.6579   -3.3202 C   0  0  0  0  0  0  0  0  0  0  0  0
    4.6483  -11.7357   -4.2131 C   0  0  0  0  0  0  0  0  0  0  0  0
    4.1360  -13.0446   -4.0980 C   0  0  0  0  0  0  0  0  0  0  0  0
    4.5452  -14.0394   -4.9737 C   0  0  0  0  0  0  0  0  0  0  0  0
    5.4268  -13.8781   -5.9764 N   0  0  0  0  0  0  0  0  0  0  0  0
    5.9039  -12.6243   -6.0564 C   0  0  0  0  0  0  0  0  0  0  0  0
    6.8046  -12.2052   -6.9836 N   0  0  0  0  0  0  0  0  0  0  0  0
    7.1450  -10.9151   -6.8728 N   0  0  0  0  0  0  0  0  0  0  0  0
    6.4131  -10.4778   -5.8344 C   0  0  0  0  0  0  0  0  0  0  0  0
    6.5750   -9.0445   -5.4650 C   0  0  0  0  0  0  0  0  0  0  0  0
    5.5994  -11.5223   -5.2580 C   0  0  0  0  0  0  0  0  0  0  0  0
    2.8274  -10.5000   -2.9631 C   0  0  0  0  0  0  0  0  0  0  0  0
    2.3751   -9.3725   -2.2503 C   0  0  0  0  0  0  0  0  0  0  0  0
    2.9223   -2.5971   -0.0533 C   0  0  0  0  0  0  0  0  0  0  0  0
    3.5540    0.3398    3.0326 H   0  0  0  0  0  0  0  0  0  0  0  0
    4.9498   -0.1902    2.0798 H   0  0  0  0  0  0  0  0  0  0  0  0
    3.8306   -1.3885    2.7493 H   0  0  0  0  0  0  0  0  0  0  0  0
    3.1137    0.7096    0.6242 H   0  0  0  0  0  0  0  0  0  0  0  0
    1.9887   -0.4587    1.2860 H   0  0  0  0  0  0  0  0  0  0  0  0
    4.9147    0.0470   -0.9062 H   0  0  0  0  0  0  0  0  0  0  0  0
    5.5841   -1.5449   -2.6715 H   0  0  0  0  0  0  0  0  0  0  0  0
    4.5828   -3.7438   -2.7967 H   0  0  0  0  0  0  0  0  0  0  0  0
    2.1699   -5.0591   -0.2484 H   0  0  0  0  0  0  0  0  0  0  0  0
    1.7797   -7.0452   -1.2767 H   0  0  0  0  0  0  0  0  0  0  0  0
    5.3814   -7.8593   -1.8392 H   0  0  0  0  0  0  0  0  0  0  0  0
    6.1441   -9.8676   -2.9061 H   0  0  0  0  0  0  0  0  0  0  0  0
    3.4210  -13.2967   -3.3201 H   0  0  0  0  0  0  0  0  0  0  0  0
    4.1433  -15.0459   -4.8834 H   0  0  0  0  0  0  0  0  0  0  0  0
    7.2193  -12.7622   -7.7192 H   0  0  0  0  0  0  0  0  0  0  0  0
    7.1873   -8.5116   -6.2025 H   0  0  0  0  0  0  0  0  0  0  0  0
    7.1053   -8.9420   -4.5149 H   0  0  0  0  0  0  0  0  0  0  0  0
    5.6093   -8.5359   -5.4109 H   0  0  0  0  0  0  0  0  0  0  0  0
    2.0894  -11.2378   -3.2725 H   0  0  0  0  0  0  0  0  0  0  0  0
    1.3158   -9.2845   -2.0266 H   0  0  0  0  0  0  0  0  0  0  0  0
    2.1854   -2.8831    0.6933 H   0  0  0  0  0  0  0  0  0  0  0  0
  1  2  1  0  0  0  0
  1 29  1  0  0  0  0
  1 30  1  0  0  0  0
  1 31  1  0  0  0  0
  2  3  1  0  0  0  0
  2 32  1  0  0  0  0
  2 33  1  0  0  0  0
  3  4  1  0  0  0  0
  3 28  2  0  0  0  0
  4  5  2  0  0  0  0
  4 34  1  0  0  0  0
  5  6  1  0  0  0  0
  5 35  1  0  0  0  0
  6  7  2  0  0  0  0
  6 36  1  0  0  0  0
  7  8  1  0  0  0  0
  7 28  1  0  0  0  0
  8  9  1  0  0  0  0
  8 37  1  0  0  0  0
  9 10  2  0  0  0  0
  9 11  1  0  0  0  0
 11 12  1  0  0  0  0
 11 38  1  0  0  0  0
 12 13  1  0  0  0  0
 12 27  2  0  0  0  0
 13 14  2  0  0  0  0
 13 39  1  0  0  0  0
 14 15  1  0  0  0  0
 14 40  1  0  0  0  0
 15 16  1  0  0  0  0
 15 26  2  0  0  0  0
 16 17  1  0  0  0  0
 16 25  2  0  0  0  0
 17 18  2  0  0  0  0
 17 41  1  0  0  0  0
 18 19  1  0  0  0  0
 18 42  1  0  0  0  0
 19 20  2  0  0  0  0
 20 21  1  0  0  0  0
 20 25  1  0  0  0  0
 21 22  1  0  0  0  0
 21 43  1  0  0  0  0
 22 23  2  0  0  0  0
 23 24  1  0  0  0  0
 23 25  1  0  0  0  0
 24 44  1  0  0  0  0
 24 45  1  0  0  0  0
 24 46  1  0  0  0  0
 26 27  1  0  0  0  0
 26 47  1  0  0  0  0
 27 48  1  0  0  0  0
 28 49  1  0  0  0  0
M  END
$$$$
