CHEMBL3288527
 OpenBabel04072215363D

 48 52  0  0  0  0  0  0  0  0999 V2000
    2.1238    1.3870   -1.6011 N   0  0  0  0  0  0  0  0  0  0  0  0
    1.2517    0.4058   -1.3307 C   0  0  0  0  0  0  0  0  0  0  0  0
    1.5272   -0.8422   -1.6988 N   0  0  0  0  0  0  0  0  0  0  0  0
    0.4847   -1.5437   -1.2456 N   0  0  0  0  0  0  0  0  0  0  0  0
   -0.4593   -0.7988   -0.5951 C   0  0  0  0  0  0  0  0  0  0  0  0
   -1.6473   -1.2038    0.0190 C   0  0  0  0  0  0  0  0  0  0  0  0
   -2.4311   -0.2157    0.5985 C   0  0  0  0  0  0  0  0  0  0  0  0
   -2.0375    1.1190    0.5447 C   0  0  0  0  0  0  0  0  0  0  0  0
   -0.8291    1.5426   -0.0725 C   0  0  0  0  0  0  0  0  0  0  0  0
   -0.4707    2.9780   -0.0793 C   0  0  0  0  0  0  0  0  0  0  0  0
   -0.7432    3.7911    1.0305 C   0  0  0  0  0  0  0  0  0  0  0  0
   -0.4264    5.1551    1.0475 C   0  0  0  0  0  0  0  0  0  0  0  0
    0.2510    5.7587   -0.0153 C   0  0  0  0  0  0  0  0  0  0  0  0
    0.5265    4.9521   -1.1341 C   0  0  0  0  0  0  0  0  0  0  0  0
    0.1134    3.6121   -1.1843 C   0  0  0  0  0  0  0  0  0  0  0  0
    1.2209    5.3778   -2.2438 O   0  0  0  0  0  0  0  0  0  0  0  0
    1.9390    6.5911   -2.0167 C   0  0  0  0  0  0  0  0  0  0  0  0
    1.0448    7.6239   -1.3512 C   0  0  0  0  0  0  0  0  0  0  0  0
    0.6480    7.1492   -0.0179 N   0  0  0  0  0  0  0  0  0  0  0  0
    0.7293    7.8927    1.1614 C   0  0  0  0  0  0  0  0  0  0  0  0
    0.5335    7.3966    2.2707 O   0  0  0  0  0  0  0  0  0  0  0  0
    1.0847    9.2235    1.0245 N   0  0  0  0  0  0  0  0  0  0  0  0
    1.3402   10.1254    2.0870 C   0  0  0  0  0  0  0  0  0  0  0  0
    1.5087    9.7317    3.4229 C   0  0  0  0  0  0  0  0  0  0  0  0
    1.6928   10.6755    4.4358 C   0  0  0  0  0  0  0  0  0  0  0  0
    1.7422   12.0293    4.1235 C   0  0  0  0  0  0  0  0  0  0  0  0
    1.6239   12.4335    2.7965 C   0  0  0  0  0  0  0  0  0  0  0  0
    1.4279   11.4865    1.7826 C   0  0  0  0  0  0  0  0  0  0  0  0
   -0.0100    0.5256   -0.6514 C   0  0  0  0  0  0  0  0  0  0  0  0
    3.0211    1.0948   -1.9693 H   0  0  0  0  0  0  0  0  0  0  0  0
    2.1815    2.2007   -0.9995 H   0  0  0  0  0  0  0  0  0  0  0  0
    0.4764   -2.5429   -1.4072 H   0  0  0  0  0  0  0  0  0  0  0  0
   -1.9513   -2.2451    0.0452 H   0  0  0  0  0  0  0  0  0  0  0  0
   -3.3632   -0.4836    1.0912 H   0  0  0  0  0  0  0  0  0  0  0  0
   -2.7042    1.8553    0.9932 H   0  0  0  0  0  0  0  0  0  0  0  0
   -1.2249    3.3800    1.9174 H   0  0  0  0  0  0  0  0  0  0  0  0
   -0.7435    5.7101    1.9222 H   0  0  0  0  0  0  0  0  0  0  0  0
    0.2893    3.0573   -2.1022 H   0  0  0  0  0  0  0  0  0  0  0  0
    2.2702    6.9589   -2.9934 H   0  0  0  0  0  0  0  0  0  0  0  0
    2.8366    6.3861   -1.4182 H   0  0  0  0  0  0  0  0  0  0  0  0
    0.1195    7.7554   -1.9259 H   0  0  0  0  0  0  0  0  0  0  0  0
    1.5683    8.5795   -1.3177 H   0  0  0  0  0  0  0  0  0  0  0  0
    0.9315    9.6506    0.1270 H   0  0  0  0  0  0  0  0  0  0  0  0
    1.4968    8.6891    3.7222 H   0  0  0  0  0  0  0  0  0  0  0  0
    1.7900   10.3435    5.4661 H   0  0  0  0  0  0  0  0  0  0  0  0
    1.8754   12.7616    4.9130 H   0  0  0  0  0  0  0  0  0  0  0  0
    1.6747   13.4908    2.5489 H   0  0  0  0  0  0  0  0  0  0  0  0
    1.3310   11.8376    0.7591 H   0  0  0  0  0  0  0  0  0  0  0  0
  1  2  1  0  0  0  0
  1 30  1  0  0  0  0
  1 31  1  0  0  0  0
  2  3  2  0  0  0  0
  2 29  1  0  0  0  0
  3  4  1  0  0  0  0
  4  5  1  0  0  0  0
  4 32  1  0  0  0  0
  5  6  1  0  0  0  0
  5 29  2  0  0  0  0
  6  7  2  0  0  0  0
  6 33  1  0  0  0  0
  7  8  1  0  0  0  0
  7 34  1  0  0  0  0
  8  9  2  0  0  0  0
  8 35  1  0  0  0  0
  9 10  1  0  0  0  0
  9 29  1  0  0  0  0
 10 11  1  0  0  0  0
 10 15  2  0  0  0  0
 11 12  2  0  0  0  0
 11 36  1  0  0  0  0
 12 13  1  0  0  0  0
 12 37  1  0  0  0  0
 13 14  2  0  0  0  0
 13 19  1  0  0  0  0
 14 15  1  0  0  0  0
 14 16  1  0  0  0  0
 15 38  1  0  0  0  0
 16 17  1  0  0  0  0
 17 18  1  0  0  0  0
 17 39  1  0  0  0  0
 17 40  1  0  0  0  0
 18 19  1  0  0  0  0
 18 41  1  0  0  0  0
 18 42  1  0  0  0  0
 19 20  1  0  0  0  0
 20 21  2  0  0  0  0
 20 22  1  0  0  0  0
 22 23  1  0  0  0  0
 22 43  1  0  0  0  0
 23 24  1  0  0  0  0
 23 28  2  0  0  0  0
 24 25  2  0  0  0  0
 24 44  1  0  0  0  0
 25 26  1  0  0  0  0
 25 45  1  0  0  0  0
 26 27  2  0  0  0  0
 26 46  1  0  0  0  0
 27 28  1  0  0  0  0
 27 47  1  0  0  0  0
 28 48  1  0  0  0  0
M  END
$$$$
