CHEMBL378165
 OpenBabel04072215373D

 49 53  0  0  0  0  0  0  0  0999 V2000
    2.1406    0.0755    0.0122 C   0  0  0  0  0  0  0  0  0  0  0  0
    0.7011   -0.0346    0.0300 N   0  0  0  0  0  0  0  0  0  0  0  0
   -0.1685    1.0149   -0.0829 C   0  0  0  0  0  0  0  0  0  0  0  0
   -1.4181    0.6153   -0.0974 N   0  0  0  0  0  0  0  0  0  0  0  0
   -1.3522   -0.7377    0.0720 C   0  0  0  0  0  0  0  0  0  0  0  0
   -2.4410   -1.5127    0.1403 N   0  0  0  0  0  0  0  0  0  0  0  0
   -3.7320   -1.0920   -0.3530 C   0  0  0  0  0  0  0  0  0  0  0  0
   -4.6007   -2.3218   -0.5834 C   0  0  0  0  0  0  0  0  0  0  0  0
   -5.7811   -2.4448    0.1680 C   0  0  0  0  0  0  0  0  0  0  0  0
   -6.5928   -3.5619    0.0354 C   0  0  0  0  0  0  0  0  0  0  0  0
   -6.2249   -4.5833   -0.8434 C   0  0  0  0  0  0  0  0  0  0  0  0
   -5.0731   -4.5105   -1.6065 C   0  0  0  0  0  0  0  0  0  0  0  0
   -4.7928   -5.5543   -2.4100 N   0  0  0  0  0  0  0  0  0  0  0  0
   -3.6867   -5.4907   -3.1767 C   0  0  0  0  0  0  0  0  0  0  0  0
   -2.8296   -4.4147   -3.1870 C   0  0  0  0  0  0  0  0  0  0  0  0
   -3.1184   -3.3404   -2.3475 C   0  0  0  0  0  0  0  0  0  0  0  0
   -4.2523   -3.3612   -1.5074 C   0  0  0  0  0  0  0  0  0  0  0  0
   -0.0509   -1.1816    0.1271 C   0  0  0  0  0  0  0  0  0  0  0  0
    0.4659   -2.5083    0.1771 C   0  0  0  0  0  0  0  0  0  0  0  0
    1.7495   -2.8042    0.1352 N   0  0  0  0  0  0  0  0  0  0  0  0
    1.8426   -4.1714    0.1016 N   0  0  0  0  0  0  0  0  0  0  0  0
    0.6115   -4.6399    0.1107 C   0  0  0  0  0  0  0  0  0  0  0  0
    0.1227   -5.8906    0.0155 N   0  0  0  0  0  0  0  0  0  0  0  0
    0.7720   -6.9858   -0.5888 C   0  0  0  0  0  0  0  0  0  0  0  0
    2.0488   -6.9045   -1.1658 C   0  0  0  0  0  0  0  0  0  0  0  0
    2.6630   -8.0190   -1.7461 C   0  0  0  0  0  0  0  0  0  0  0  0
    2.0162   -9.2460   -1.7349 C   0  0  0  0  0  0  0  0  0  0  0  0
    2.7575  -10.6129   -2.4616 Cl  0  0  0  0  0  0  0  0  0  0  0  0
    0.7644   -9.3667   -1.1339 C   0  0  0  0  0  0  0  0  0  0  0  0
    0.1522   -8.2457   -0.5572 C   0  0  0  0  0  0  0  0  0  0  0  0
   -0.3161   -3.6407    0.2035 O   0  0  0  0  0  0  0  0  0  0  0  0
    2.4273    1.1310    0.0041 H   0  0  0  0  0  0  0  0  0  0  0  0
    2.5119   -0.4110   -0.8946 H   0  0  0  0  0  0  0  0  0  0  0  0
    2.5416   -0.4006    0.9087 H   0  0  0  0  0  0  0  0  0  0  0  0
    0.1583    2.0474   -0.1632 H   0  0  0  0  0  0  0  0  0  0  0  0
   -2.4620   -2.2983    0.7841 H   0  0  0  0  0  0  0  0  0  0  0  0
   -3.6540   -0.5346   -1.2948 H   0  0  0  0  0  0  0  0  0  0  0  0
   -4.1973   -0.4270    0.3822 H   0  0  0  0  0  0  0  0  0  0  0  0
   -6.0793   -1.6653    0.8741 H   0  0  0  0  0  0  0  0  0  0  0  0
   -7.5086   -3.6520    0.6116 H   0  0  0  0  0  0  0  0  0  0  0  0
   -6.8598   -5.4625   -0.9340 H   0  0  0  0  0  0  0  0  0  0  0  0
   -3.5090   -6.3593   -3.8028 H   0  0  0  0  0  0  0  0  0  0  0  0
   -1.9574   -4.4030   -3.8316 H   0  0  0  0  0  0  0  0  0  0  0  0
   -2.4468   -2.4867   -2.3555 H   0  0  0  0  0  0  0  0  0  0  0  0
   -0.8834   -5.9846    0.0681 H   0  0  0  0  0  0  0  0  0  0  0  0
    2.5967   -5.9660   -1.2040 H   0  0  0  0  0  0  0  0  0  0  0  0
    3.6432   -7.9123   -2.2005 H   0  0  0  0  0  0  0  0  0  0  0  0
    0.2576  -10.3281   -1.1081 H   0  0  0  0  0  0  0  0  0  0  0  0
   -0.8193   -8.3687   -0.0844 H   0  0  0  0  0  0  0  0  0  0  0  0
  1  2  1  0  0  0  0
  1 32  1  0  0  0  0
  1 33  1  0  0  0  0
  1 34  1  0  0  0  0
  2  3  1  0  0  0  0
  2 18  1  0  0  0  0
  3  4  2  0  0  0  0
  3 35  1  0  0  0  0
  4  5  1  0  0  0  0
  5  6  1  0  0  0  0
  5 18  2  0  0  0  0
  6  7  1  0  0  0  0
  6 36  1  0  0  0  0
  7  8  1  0  0  0  0
  7 37  1  0  0  0  0
  7 38  1  0  0  0  0
  8  9  1  0  0  0  0
  8 17  2  0  0  0  0
  9 10  2  0  0  0  0
  9 39  1  0  0  0  0
 10 11  1  0  0  0  0
 10 40  1  0  0  0  0
 11 12  2  0  0  0  0
 11 41  1  0  0  0  0
 12 13  1  0  0  0  0
 12 17  1  0  0  0  0
 13 14  2  0  0  0  0
 14 15  1  0  0  0  0
 14 42  1  0  0  0  0
 15 16  2  0  0  0  0
 15 43  1  0  0  0  0
 16 17  1  0  0  0  0
 16 44  1  0  0  0  0
 18 19  1  0  0  0  0
 19 20  2  0  0  0  0
 19 31  1  0  0  0  0
 20 21  1  0  0  0  0
 21 22  2  0  0  0  0
 22 23  1  0  0  0  0
 22 31  1  0  0  0  0
 23 24  1  0  0  0  0
 23 45  1  0  0  0  0
 24 25  1  0  0  0  0
 24 30  2  0  0  0  0
 25 26  2  0  0  0  0
 25 46  1  0  0  0  0
 26 27  1  0  0  0  0
 26 47  1  0  0  0  0
 27 28  1  0  0  0  0
 27 29  2  0  0  0  0
 29 30  1  0  0  0  0
 29 48  1  0  0  0  0
 30 49  1  0  0  0  0
M  END
$$$$
