CHEMBL3978453
 OpenBabel04072215373D

 67 70  0  0  1  0  0  0  0  0999 V2000
    0.7707    3.1622    2.9022 C   0  0  0  0  0  0  0  0  0  0  0  0
    2.1529    3.5181    2.8228 O   0  0  0  0  0  0  0  0  0  0  0  0
    3.0070    2.5898    2.2644 C   0  0  0  0  0  0  0  0  0  0  0  0
    2.6084    1.3277    1.8319 C   0  0  0  0  0  0  0  0  0  0  0  0
    3.5321    0.4881    1.2175 C   0  0  0  0  0  0  0  0  0  0  0  0
    3.2593   -0.7551    0.7079 O   0  0  0  0  0  0  0  0  0  0  0  0
    1.9331   -1.2458    0.8719 C   0  0  0  0  0  0  0  0  0  0  0  0
    4.8587    0.9111    1.0525 C   0  0  0  0  0  0  0  0  0  0  0  0
    5.3062    2.1767    1.4728 C   0  0  0  0  0  0  0  0  0  0  0  0
    6.5835    2.6905    1.1140 N   0  0  0  0  0  0  0  0  0  0  0  0
    7.1392    2.1986   -0.2137 C   0  0  0  0  0  0  0  0  0  0  0  0
    6.2887    2.5199   -1.4767 C   0  0  3  0  0  0  0  0  0  0  0  0
    6.1369    3.9301   -1.7117 O   0  0  0  0  0  0  0  0  0  0  0  0
    6.9646    1.9221   -2.7452 C   0  0  0  0  0  0  0  0  0  0  0  0
    7.1230    0.4622   -2.6676 N   0  0  0  0  0  0  0  0  0  0  0  0
    7.6851   -0.1558   -3.8796 C   0  0  0  0  0  0  0  0  0  0  0  0
    9.1021    0.3140   -4.2204 C   0  0  0  0  0  0  0  0  0  0  0  0
    7.6955   -1.6738   -3.6509 C   0  0  0  0  0  0  0  0  0  0  0  0
    7.7163    3.0372    1.9564 C   0  0  0  0  0  0  0  0  0  0  0  0
    8.4790    4.0982    1.4834 C   0  0  0  0  0  0  0  0  0  0  0  0
    9.8161    4.1822    1.7946 C   0  0  0  0  0  0  0  0  0  0  0  0
   10.3964    3.3259    2.7048 C   0  0  0  0  0  0  0  0  0  0  0  0
   11.7301    3.4105    2.7685 N   0  0  0  0  0  0  0  0  0  0  0  0
   12.3297    2.7543    3.7674 C   0  0  0  0  0  0  0  0  0  0  0  0
   11.6082    2.0796    4.7323 C   0  0  0  0  0  0  0  0  0  0  0  0
   12.3371    1.7849    5.9702 C   0  0  0  0  0  0  0  0  0  0  0  0
   12.3844    2.5423    7.1736 C   0  0  0  0  0  0  0  0  0  0  0  0
   13.3612    2.1549    8.0021 N   0  0  0  0  0  0  0  0  0  0  0  0
   13.9612    1.1567    7.3319 N   0  0  0  0  0  0  0  0  0  0  0  0
   14.9350    0.3180    7.9925 C   0  0  0  0  0  0  0  0  0  0  0  0
   13.4836    1.0081    6.0573 C   0  0  0  0  0  0  0  0  0  0  0  0
   10.2513    1.8775    4.6032 N   0  0  0  0  0  0  0  0  0  0  0  0
    9.6078    2.4672    3.5059 C   0  0  0  0  0  0  0  0  0  0  0  0
    8.2446    2.2946    3.0507 C   0  0  0  0  0  0  0  0  0  0  0  0
    4.3495    2.9994    2.1030 C   0  0  0  0  0  0  0  0  0  0  0  0
    0.2111    4.0255    3.2790 H   0  0  0  0  0  0  0  0  0  0  0  0
    0.6176    2.3398    3.6119 H   0  0  0  0  0  0  0  0  0  0  0  0
    0.3493    2.9110    1.9208 H   0  0  0  0  0  0  0  0  0  0  0  0
    1.5860    1.0098    1.9481 H   0  0  0  0  0  0  0  0  0  0  0  0
    1.8905   -2.2483    0.4361 H   0  0  0  0  0  0  0  0  0  0  0  0
    1.2082   -0.6216    0.3374 H   0  0  0  0  0  0  0  0  0  0  0  0
    1.6726   -1.3326    1.9322 H   0  0  0  0  0  0  0  0  0  0  0  0
    5.5344    0.2283    0.5486 H   0  0  0  0  0  0  0  0  0  0  0  0
    7.3577    1.1300   -0.1311 H   0  0  0  0  0  0  0  0  0  0  0  0
    8.1115    2.6704   -0.4149 H   0  0  0  0  0  0  0  0  0  0  0  0
    5.2785    2.1105   -1.3928 H   0  0  0  0  0  0  0  0  0  0  0  0
    6.8181    4.4030   -1.2080 H   0  0  0  0  0  0  0  0  0  0  0  0
    7.9424    2.4052   -2.8695 H   0  0  0  0  0  0  0  0  0  0  0  0
    6.3740    2.1938   -3.6295 H   0  0  0  0  0  0  0  0  0  0  0  0
    6.2088    0.0447   -2.4863 H   0  0  0  0  0  0  0  0  0  0  0  0
    7.0272    0.0518   -4.7329 H   0  0  0  0  0  0  0  0  0  0  0  0
    9.7800    0.1832   -3.3648 H   0  0  0  0  0  0  0  0  0  0  0  0
    9.1199    1.3669   -4.5125 H   0  0  0  0  0  0  0  0  0  0  0  0
    9.5082   -0.2593   -5.0570 H   0  0  0  0  0  0  0  0  0  0  0  0
    8.3332   -1.9479   -2.8051 H   0  0  0  0  0  0  0  0  0  0  0  0
    8.0866   -2.1946   -4.5423 H   0  0  0  0  0  0  0  0  0  0  0  0
    6.6911   -2.0565   -3.4644 H   0  0  0  0  0  0  0  0  0  0  0  0
    8.0753    4.7734    0.7388 H   0  0  0  0  0  0  0  0  0  0  0  0
   10.4467    4.8989    1.2802 H   0  0  0  0  0  0  0  0  0  0  0  0
   13.4070    2.8456    3.8048 H   0  0  0  0  0  0  0  0  0  0  0  0
   11.7786    3.3937    7.4617 H   0  0  0  0  0  0  0  0  0  0  0  0
   15.0714    0.6471    9.0269 H   0  0  0  0  0  0  0  0  0  0  0  0
   15.8850    0.3650    7.4548 H   0  0  0  0  0  0  0  0  0  0  0  0
   14.5419   -0.7022    7.9852 H   0  0  0  0  0  0  0  0  0  0  0  0
   13.9837    0.3639    5.3482 H   0  0  0  0  0  0  0  0  0  0  0  0
    7.6384    1.5185    3.5212 H   0  0  0  0  0  0  0  0  0  0  0  0
    4.6249    4.0113    2.4008 H   0  0  0  0  0  0  0  0  0  0  0  0
  1  2  1  0  0  0  0
  1 36  1  0  0  0  0
  1 37  1  0  0  0  0
  1 38  1  0  0  0  0
  2  3  1  0  0  0  0
  3  4  1  0  0  0  0
  3 35  2  0  0  0  0
  4  5  2  0  0  0  0
  4 39  1  0  0  0  0
  5  6  1  0  0  0  0
  5  8  1  0  0  0  0
  6  7  1  0  0  0  0
  7 40  1  0  0  0  0
  7 41  1  0  0  0  0
  7 42  1  0  0  0  0
  8  9  2  0  0  0  0
  8 43  1  0  0  0  0
  9 10  1  0  0  0  0
  9 35  1  0  0  0  0
 10 11  1  0  0  0  0
 10 19  1  0  0  0  0
 11 12  1  0  0  0  0
 11 44  1  0  0  0  0
 11 45  1  0  0  0  0
 12 13  1  0  0  0  0
 12 14  1  0  0  0  0
 12 46  1  0  0  0  0
 13 47  1  0  0  0  0
 14 15  1  0  0  0  0
 14 48  1  0  0  0  0
 14 49  1  0  0  0  0
 15 16  1  0  0  0  0
 15 50  1  0  0  0  0
 16 17  1  0  0  0  0
 16 18  1  0  0  0  0
 16 51  1  0  0  0  0
 17 52  1  0  0  0  0
 17 53  1  0  0  0  0
 17 54  1  0  0  0  0
 18 55  1  0  0  0  0
 18 56  1  0  0  0  0
 18 57  1  0  0  0  0
 19 20  1  0  0  0  0
 19 34  2  0  0  0  0
 20 21  2  0  0  0  0
 20 58  1  0  0  0  0
 21 22  1  0  0  0  0
 21 59  1  0  0  0  0
 22 23  1  0  0  0  0
 22 33  2  0  0  0  0
 23 24  2  0  0  0  0
 24 25  1  0  0  0  0
 24 60  1  0  0  0  0
 25 26  1  0  0  0  0
 25 32  2  0  0  0  0
 26 27  1  0  0  0  0
 26 31  2  0  0  0  0
 27 28  2  0  0  0  0
 27 61  1  0  0  0  0
 28 29  1  0  0  0  0
 29 30  1  0  0  0  0
 29 31  1  0  0  0  0
 30 62  1  0  0  0  0
 30 63  1  0  0  0  0
 30 64  1  0  0  0  0
 31 65  1  0  0  0  0
 32 33  1  0  0  0  0
 33 34  1  0  0  0  0
 34 66  1  0  0  0  0
 35 67  1  0  0  0  0
M  END
$$$$
