CHEMBL205244
 OpenBabel04072215363D

 46 49  0  0  0  0  0  0  0  0999 V2000
   12.2016   -1.1606    5.8679 F   0  0  0  0  0  0  0  0  0  0  0  0
   11.6780   -1.0191    4.6180 C   0  0  0  0  0  0  0  0  0  0  0  0
   11.7879    0.3041    4.3158 F   0  0  0  0  0  0  0  0  0  0  0  0
   12.5352   -1.6663    3.7805 F   0  0  0  0  0  0  0  0  0  0  0  0
   10.2613   -1.5254    4.4960 C   0  0  0  0  0  0  0  0  0  0  0  0
    9.6052   -2.1109    5.5856 C   0  0  0  0  0  0  0  0  0  0  0  0
    8.2952   -2.5895    5.4606 C   0  0  0  0  0  0  0  0  0  0  0  0
    7.6107   -2.5202    4.2424 C   0  0  0  0  0  0  0  0  0  0  0  0
    6.2885   -2.9707    4.0586 N   0  0  0  0  0  0  0  0  0  0  0  0
    5.4111   -3.3953    4.9882 C   0  0  0  0  0  0  0  0  0  0  0  0
    4.4375   -4.2697    4.8563 N   0  0  0  0  0  0  0  0  0  0  0  0
    3.7639   -4.2999    6.0598 N   0  0  0  0  0  0  0  0  0  0  0  0
    4.3385   -3.4100    6.8427 C   0  0  0  0  0  0  0  0  0  0  0  0
    4.0242   -2.9577    8.1989 C   0  0  0  0  0  0  0  0  0  0  0  0
    4.8764   -2.0226    8.8057 C   0  0  0  0  0  0  0  0  0  0  0  0
    4.7233   -1.4974   10.0463 N   0  0  0  0  0  0  0  0  0  0  0  0
    3.6634   -1.9264   10.7481 C   0  0  0  0  0  0  0  0  0  0  0  0
    2.7567   -2.8534   10.2631 C   0  0  0  0  0  0  0  0  0  0  0  0
    2.9108   -3.3800    8.9628 C   0  0  0  0  0  0  0  0  0  0  0  0
    1.8600   -4.3789    8.4992 C   0  0  0  0  0  0  0  0  0  0  0  0
    0.4410   -3.7776    8.4465 C   0  0  0  0  0  0  0  0  0  0  0  0
   -0.6692   -4.7051    8.0015 C   0  0  0  0  0  0  0  0  0  0  0  0
   -1.9506   -4.5542    8.5485 C   0  0  0  0  0  0  0  0  0  0  0  0
   -2.9858   -5.3511    8.0797 C   0  0  0  0  0  0  0  0  0  0  0  0
   -2.8387   -6.2781    7.1127 N   0  0  0  0  0  0  0  0  0  0  0  0
   -1.6019   -6.4057    6.5883 C   0  0  0  0  0  0  0  0  0  0  0  0
   -0.5053   -5.6529    6.9888 C   0  0  0  0  0  0  0  0  0  0  0  0
    5.4088   -2.8077    6.2233 O   0  0  0  0  0  0  0  0  0  0  0  0
    8.2641   -1.9096    3.1618 C   0  0  0  0  0  0  0  0  0  0  0  0
    9.5727   -1.4219    3.2804 C   0  0  0  0  0  0  0  0  0  0  0  0
   10.1124   -2.2059    6.5458 H   0  0  0  0  0  0  0  0  0  0  0  0
    7.8420   -3.0512    6.3339 H   0  0  0  0  0  0  0  0  0  0  0  0
    6.1150   -3.3149    3.1208 H   0  0  0  0  0  0  0  0  0  0  0  0
    5.7574   -1.6403    8.2924 H   0  0  0  0  0  0  0  0  0  0  0  0
    3.5526   -1.4967   11.7396 H   0  0  0  0  0  0  0  0  0  0  0  0
    1.9316   -3.1579   10.9008 H   0  0  0  0  0  0  0  0  0  0  0  0
    1.8779   -5.2363    9.1853 H   0  0  0  0  0  0  0  0  0  0  0  0
    2.1106   -4.7897    7.5242 H   0  0  0  0  0  0  0  0  0  0  0  0
    0.4364   -2.9066    7.7791 H   0  0  0  0  0  0  0  0  0  0  0  0
    0.1804   -3.4041    9.4450 H   0  0  0  0  0  0  0  0  0  0  0  0
   -2.1532   -3.8193    9.3209 H   0  0  0  0  0  0  0  0  0  0  0  0
   -3.9921   -5.2522    8.4768 H   0  0  0  0  0  0  0  0  0  0  0  0
   -1.5099   -7.1476    5.8001 H   0  0  0  0  0  0  0  0  0  0  0  0
    0.4455   -5.8094    6.4917 H   0  0  0  0  0  0  0  0  0  0  0  0
    7.7567   -1.7974    2.2039 H   0  0  0  0  0  0  0  0  0  0  0  0
   10.0520   -0.9606    2.4193 H   0  0  0  0  0  0  0  0  0  0  0  0
  1  2  1  0  0  0  0
  2  3  1  0  0  0  0
  2  4  1  0  0  0  0
  2  5  1  0  0  0  0
  5  6  1  0  0  0  0
  5 30  2  0  0  0  0
  6  7  2  0  0  0  0
  6 31  1  0  0  0  0
  7  8  1  0  0  0  0
  7 32  1  0  0  0  0
  8  9  1  0  0  0  0
  8 29  2  0  0  0  0
  9 10  1  0  0  0  0
  9 33  1  0  0  0  0
 10 11  2  0  0  0  0
 10 28  1  0  0  0  0
 11 12  1  0  0  0  0
 12 13  2  0  0  0  0
 13 14  1  0  0  0  0
 13 28  1  0  0  0  0
 14 15  1  0  0  0  0
 14 19  2  0  0  0  0
 15 16  2  0  0  0  0
 15 34  1  0  0  0  0
 16 17  1  0  0  0  0
 17 18  2  0  0  0  0
 17 35  1  0  0  0  0
 18 19  1  0  0  0  0
 18 36  1  0  0  0  0
 19 20  1  0  0  0  0
 20 21  1  0  0  0  0
 20 37  1  0  0  0  0
 20 38  1  0  0  0  0
 21 22  1  0  0  0  0
 21 39  1  0  0  0  0
 21 40  1  0  0  0  0
 22 23  1  0  0  0  0
 22 27  2  0  0  0  0
 23 24  2  0  0  0  0
 23 41  1  0  0  0  0
 24 25  1  0  0  0  0
 24 42  1  0  0  0  0
 25 26  2  0  0  0  0
 26 27  1  0  0  0  0
 26 43  1  0  0  0  0
 27 44  1  0  0  0  0
 29 30  1  0  0  0  0
 29 45  1  0  0  0  0
 30 46  1  0  0  0  0
M  END
$$$$
