CHEMBL3967877
 OpenBabel04072215373D

 76 80  0  0  1  0  0  0  0  0999 V2000
   -8.3132   16.3376    1.9016 C   0  0  0  0  0  0  0  0  0  0  0  0
   -7.9880   15.0733    1.1588 C   0  0  0  0  0  0  0  0  0  0  0  0
   -7.5919   15.1425   -0.1807 C   0  0  0  0  0  0  0  0  0  0  0  0
   -7.2531   13.9816   -0.8641 C   0  0  0  0  0  0  0  0  0  0  0  0
   -7.3243   12.7474   -0.2260 C   0  0  0  0  0  0  0  0  0  0  0  0
   -6.8523   11.7054   -0.9205 F   0  0  0  0  0  0  0  0  0  0  0  0
   -7.7802   12.6297    1.0976 C   0  0  0  0  0  0  0  0  0  0  0  0
   -7.9677   11.4008    1.7846 N   0  0  0  0  0  0  0  0  0  0  0  0
   -8.0620   10.1495    1.1960 C   0  0  0  0  0  0  0  0  0  0  0  0
   -7.9973    9.9092   -0.0029 O   0  0  0  0  0  0  0  0  0  0  0  0
   -8.3308    9.1517    2.1293 N   0  0  0  0  0  0  0  0  0  0  0  0
   -8.4757    7.8126    1.6789 C   0  0  0  0  0  0  0  0  0  0  0  0
   -7.5214    7.1978    0.8628 C   0  0  0  0  0  0  0  0  0  0  0  0
   -7.7298    5.8951    0.3980 C   0  0  0  0  0  0  0  0  0  0  0  0
   -8.8995    5.2064    0.7341 C   0  0  0  0  0  0  0  0  0  0  0  0
   -9.0360    3.9434    0.2023 O   0  0  0  0  0  0  0  0  0  0  0  0
   -9.7029    2.9708    0.9182 C   0  0  0  0  0  0  0  0  0  0  0  0
   -9.6522    2.8687    2.3097 C   0  0  0  0  0  0  0  0  0  0  0  0
  -10.3636    1.8643    2.9349 C   0  0  0  0  0  0  0  0  0  0  0  0
  -11.0808    0.9177    2.3078 N   0  0  0  0  0  0  0  0  0  0  0  0
  -11.0753    0.9733    0.9499 C   0  0  0  0  0  0  0  0  0  0  0  0
  -11.7345    0.0447    0.0987 C   0  0  0  0  0  0  0  0  0  0  0  0
  -11.5737    0.3301   -1.2415 C   0  0  0  0  0  0  0  0  0  0  0  0
  -12.1281   -0.4259   -2.3583 C   0  0  0  0  0  0  0  0  0  0  0  0
  -12.8601   -1.3965   -2.1964 O   0  0  0  0  0  0  0  0  0  0  0  0
  -11.7800    0.0243   -3.6156 N   0  0  0  0  0  0  0  0  0  0  0  0
  -12.2767   -0.5925   -4.8269 C   0  0  0  0  0  0  0  0  0  0  0  0
  -13.6157    0.0096   -5.2458 C   0  0  0  0  0  0  0  0  0  0  0  0
  -14.1830   -0.6529   -6.5081 C   0  0  0  0  0  0  0  0  0  0  0  0
  -14.3966   -2.1080   -6.3934 N   0  0  0  0  0  0  0  0  0  0  0  0
  -15.3854   -2.4264   -5.3485 C   0  0  0  0  0  0  0  0  0  0  0  0
  -15.6109   -3.9304   -5.2190 C   0  0  0  0  0  0  0  0  0  0  0  0
  -16.0429   -4.5396   -6.5446 C   0  0  0  0  0  0  0  0  0  0  0  0
  -15.0394   -4.1803   -7.6468 C   0  0  3  0  0  0  0  0  0  0  0  0
  -15.5138   -4.6810   -9.0149 C   0  0  0  0  0  0  0  0  0  0  0  0
  -15.6967   -6.0911   -9.0143 O   0  0  0  0  0  0  0  0  0  0  0  0
  -14.8051   -2.6608   -7.6966 C   0  0  0  0  0  0  0  0  0  0  0  0
  -10.6166    1.7341   -1.4599 S   0  0  0  0  0  0  0  0  0  0  0  0
  -10.4099    1.9667    0.2318 C   0  0  0  0  0  0  0  0  0  0  0  0
   -9.8754    5.8364    1.5119 C   0  0  0  0  0  0  0  0  0  0  0  0
   -9.6337    7.1100    2.0158 C   0  0  0  0  0  0  0  0  0  0  0  0
  -10.5629    7.6953    2.7857 F   0  0  0  0  0  0  0  0  0  0  0  0
   -8.0809   13.8186    1.7908 C   0  0  0  0  0  0  0  0  0  0  0  0
   -8.1717   17.2191    1.2661 H   0  0  0  0  0  0  0  0  0  0  0  0
   -7.6542   16.4473    2.7683 H   0  0  0  0  0  0  0  0  0  0  0  0
   -9.3563   16.3292    2.2309 H   0  0  0  0  0  0  0  0  0  0  0  0
   -7.5257   16.0974   -0.6970 H   0  0  0  0  0  0  0  0  0  0  0  0
   -6.9154   14.0203   -1.8948 H   0  0  0  0  0  0  0  0  0  0  0  0
   -8.1686   11.4524    2.7725 H   0  0  0  0  0  0  0  0  0  0  0  0
   -9.0060    9.4268    2.8310 H   0  0  0  0  0  0  0  0  0  0  0  0
   -6.6158    7.7290    0.5737 H   0  0  0  0  0  0  0  0  0  0  0  0
   -6.9855    5.4272   -0.2414 H   0  0  0  0  0  0  0  0  0  0  0  0
   -9.0811    3.5673    2.9107 H   0  0  0  0  0  0  0  0  0  0  0  0
  -10.3718    1.7954    4.0203 H   0  0  0  0  0  0  0  0  0  0  0  0
  -12.3038   -0.8048    0.4592 H   0  0  0  0  0  0  0  0  0  0  0  0
  -11.2164    0.8639   -3.6852 H   0  0  0  0  0  0  0  0  0  0  0  0
  -12.3584   -1.6714   -4.6624 H   0  0  0  0  0  0  0  0  0  0  0  0
  -11.5260   -0.4217   -5.6054 H   0  0  0  0  0  0  0  0  0  0  0  0
  -13.4835    1.0816   -5.4417 H   0  0  0  0  0  0  0  0  0  0  0  0
  -14.3362   -0.0448   -4.4214 H   0  0  0  0  0  0  0  0  0  0  0  0
  -13.4742   -0.4602   -7.3244 H   0  0  0  0  0  0  0  0  0  0  0  0
  -15.1197   -0.1493   -6.7809 H   0  0  0  0  0  0  0  0  0  0  0  0
  -16.3400   -1.9259   -5.5561 H   0  0  0  0  0  0  0  0  0  0  0  0
  -15.0376   -2.0766   -4.3712 H   0  0  0  0  0  0  0  0  0  0  0  0
  -16.3757   -4.1216   -4.4577 H   0  0  0  0  0  0  0  0  0  0  0  0
  -14.6882   -4.4133   -4.8729 H   0  0  0  0  0  0  0  0  0  0  0  0
  -17.0404   -4.1658   -6.8080 H   0  0  0  0  0  0  0  0  0  0  0  0
  -16.1254   -5.6268   -6.4345 H   0  0  0  0  0  0  0  0  0  0  0  0
  -14.0906   -4.6807   -7.4066 H   0  0  0  0  0  0  0  0  0  0  0  0
  -14.7860   -4.4348   -9.7951 H   0  0  0  0  0  0  0  0  0  0  0  0
  -16.4686   -4.2208   -9.2907 H   0  0  0  0  0  0  0  0  0  0  0  0
  -14.8544   -6.4958   -8.7443 H   0  0  0  0  0  0  0  0  0  0  0  0
  -15.7118   -2.1567   -8.0571 H   0  0  0  0  0  0  0  0  0  0  0  0
  -14.0129   -2.4635   -8.4307 H   0  0  0  0  0  0  0  0  0  0  0  0
  -10.8243    5.3607    1.7302 H   0  0  0  0  0  0  0  0  0  0  0  0
   -8.4135   13.7759    2.8272 H   0  0  0  0  0  0  0  0  0  0  0  0
  1  2  1  0  0  0  0
  1 44  1  0  0  0  0
  1 45  1  0  0  0  0
  1 46  1  0  0  0  0
  2  3  1  0  0  0  0
  2 43  2  0  0  0  0
  3  4  2  0  0  0  0
  3 47  1  0  0  0  0
  4  5  1  0  0  0  0
  4 48  1  0  0  0  0
  5  6  1  0  0  0  0
  5  7  2  0  0  0  0
  7  8  1  0  0  0  0
  7 43  1  0  0  0  0
  8  9  1  0  0  0  0
  8 49  1  0  0  0  0
  9 10  2  0  0  0  0
  9 11  1  0  0  0  0
 11 12  1  0  0  0  0
 11 50  1  0  0  0  0
 12 13  1  0  0  0  0
 12 41  2  0  0  0  0
 13 14  2  0  0  0  0
 13 51  1  0  0  0  0
 14 15  1  0  0  0  0
 14 52  1  0  0  0  0
 15 16  1  0  0  0  0
 15 40  2  0  0  0  0
 16 17  1  0  0  0  0
 17 18  1  0  0  0  0
 17 39  2  0  0  0  0
 18 19  2  0  0  0  0
 18 53  1  0  0  0  0
 19 20  1  0  0  0  0
 19 54  1  0  0  0  0
 20 21  2  0  0  0  0
 21 22  1  0  0  0  0
 21 39  1  0  0  0  0
 22 23  2  0  0  0  0
 22 55  1  0  0  0  0
 23 24  1  0  0  0  0
 23 38  1  0  0  0  0
 24 25  2  0  0  0  0
 24 26  1  0  0  0  0
 26 27  1  0  0  0  0
 26 56  1  0  0  0  0
 27 28  1  0  0  0  0
 27 57  1  0  0  0  0
 27 58  1  0  0  0  0
 28 29  1  0  0  0  0
 28 59  1  0  0  0  0
 28 60  1  0  0  0  0
 29 30  1  0  0  0  0
 29 61  1  0  0  0  0
 29 62  1  0  0  0  0
 30 31  1  0  0  0  0
 30 37  1  0  0  0  0
 31 32  1  0  0  0  0
 31 63  1  0  0  0  0
 31 64  1  0  0  0  0
 32 33  1  0  0  0  0
 32 65  1  0  0  0  0
 32 66  1  0  0  0  0
 33 34  1  0  0  0  0
 33 67  1  0  0  0  0
 33 68  1  0  0  0  0
 34 35  1  0  0  0  0
 34 37  1  0  0  0  0
 34 69  1  0  0  0  0
 35 36  1  0  0  0  0
 35 70  1  0  0  0  0
 35 71  1  0  0  0  0
 36 72  1  0  0  0  0
 37 73  1  0  0  0  0
 37 74  1  0  0  0  0
 38 39  1  0  0  0  0
 40 41  1  0  0  0  0
 40 75  1  0  0  0  0
 41 42  1  0  0  0  0
 43 76  1  0  0  0  0
M  END
$$$$
