CHEMBL3686066
 OpenBabel04072215373D

 60 64  0  0  0  0  0  0  0  0999 V2000
    5.4915   -3.2962    0.0703 O   0  0  0  0  0  0  0  0  0  0  0  0
    6.3676   -3.1789   -0.7755 C   0  0  0  0  0  0  0  0  0  0  0  0
    7.0099   -4.2791   -1.3050 N   0  0  0  0  0  0  0  0  0  0  0  0
    6.7496   -5.5985   -0.7130 C   0  0  0  0  0  0  0  0  0  0  0  0
    7.5491   -5.9016    0.5607 C   0  0  0  0  0  0  0  0  0  0  0  0
    8.4347   -4.9182    0.8477 F   0  0  0  0  0  0  0  0  0  0  0  0
    6.7580   -6.0837    1.6365 F   0  0  0  0  0  0  0  0  0  0  0  0
    8.2720   -7.0365    0.3897 F   0  0  0  0  0  0  0  0  0  0  0  0
    6.8353   -2.0137   -1.3345 N   0  0  0  0  0  0  0  0  0  0  0  0
    6.3971   -0.6993   -1.0704 C   0  0  0  0  0  0  0  0  0  0  0  0
    5.3406   -0.3858   -0.2194 C   0  0  0  0  0  0  0  0  0  0  0  0
    4.9412    0.9415   -0.0561 C   0  0  0  0  0  0  0  0  0  0  0  0
    5.5927    1.9644   -0.7458 C   0  0  0  0  0  0  0  0  0  0  0  0
    6.6710    1.6783   -1.5927 C   0  0  0  0  0  0  0  0  0  0  0  0
    7.3942    2.7707   -2.2545 C   0  0  0  0  0  0  0  0  0  0  0  0
    7.6463    4.0558   -1.7934 C   0  0  0  0  0  0  0  0  0  0  0  0
    8.4276    4.7730   -2.6559 N   0  0  0  0  0  0  0  0  0  0  0  0
    8.6573    3.9590   -3.6610 C   0  0  0  0  0  0  0  0  0  0  0  0
    9.4134    4.1621   -4.8487 C   0  0  0  0  0  0  0  0  0  0  0  0
    9.4622    3.2177   -5.8210 C   0  0  0  0  0  0  0  0  0  0  0  0
   10.1944    3.4920   -7.0811 C   0  0  0  0  0  0  0  0  0  0  0  0
   10.2867    4.7593   -7.6285 C   0  0  0  0  0  0  0  0  0  0  0  0
   10.9284    4.9253   -8.8518 C   0  0  0  0  0  0  0  0  0  0  0  0
   11.4553    3.8340   -9.5329 C   0  0  0  0  0  0  0  0  0  0  0  0
   12.0419    4.0099  -10.7742 N   0  0  0  0  0  0  0  0  0  0  0  0
   12.0368    2.9079  -11.7326 C   0  0  0  0  0  0  0  0  0  0  0  0
   13.4449    2.3789  -11.9879 C   0  0  0  0  0  0  0  0  0  0  0  0
   14.4156    3.5101  -12.3169 C   0  0  0  0  0  0  0  0  0  0  0  0
   14.3961    4.5619  -11.2137 C   0  0  0  0  0  0  0  0  0  0  0  0
   12.9851    5.1029  -10.9912 C   0  0  0  0  0  0  0  0  0  0  0  0
   11.3183    2.6106   -8.9820 N   0  0  0  0  0  0  0  0  0  0  0  0
   10.6976    2.4347   -7.7499 N   0  0  0  0  0  0  0  0  0  0  0  0
    8.7549    1.9483   -5.6074 C   0  0  0  0  0  0  0  0  0  0  0  0
    8.0382    1.7526   -4.4900 C   0  0  0  0  0  0  0  0  0  0  0  0
    8.0059    2.7392   -3.5028 N   0  0  0  0  0  0  0  0  0  0  0  0
    7.0725    0.3410   -1.7242 C   0  0  0  0  0  0  0  0  0  0  0  0
    7.9563   -4.1216   -1.6198 H   0  0  0  0  0  0  0  0  0  0  0  0
    6.9906   -6.3301   -1.4864 H   0  0  0  0  0  0  0  0  0  0  0  0
    5.6759   -5.6857   -0.5030 H   0  0  0  0  0  0  0  0  0  0  0  0
    7.5367   -2.1174   -2.0518 H   0  0  0  0  0  0  0  0  0  0  0  0
    4.8007   -1.1502    0.3297 H   0  0  0  0  0  0  0  0  0  0  0  0
    4.1167    1.1753    0.6138 H   0  0  0  0  0  0  0  0  0  0  0  0
    5.2504    2.9868   -0.6032 H   0  0  0  0  0  0  0  0  0  0  0  0
    7.3221    4.4912   -0.8561 H   0  0  0  0  0  0  0  0  0  0  0  0
    9.9241    5.1156   -4.9252 H   0  0  0  0  0  0  0  0  0  0  0  0
    9.8346    5.6234   -7.1525 H   0  0  0  0  0  0  0  0  0  0  0  0
   10.9549    5.9148   -9.2960 H   0  0  0  0  0  0  0  0  0  0  0  0
   11.6238    3.2891  -12.6759 H   0  0  0  0  0  0  0  0  0  0  0  0
   11.3777    2.0841  -11.4319 H   0  0  0  0  0  0  0  0  0  0  0  0
   13.4221    1.6630  -12.8181 H   0  0  0  0  0  0  0  0  0  0  0  0
   13.8024    1.8377  -11.1037 H   0  0  0  0  0  0  0  0  0  0  0  0
   14.1368    3.9730  -13.2715 H   0  0  0  0  0  0  0  0  0  0  0  0
   15.4285    3.1106  -12.4349 H   0  0  0  0  0  0  0  0  0  0  0  0
   15.0695    5.3863  -11.4729 H   0  0  0  0  0  0  0  0  0  0  0  0
   14.7726    4.1180  -10.2835 H   0  0  0  0  0  0  0  0  0  0  0  0
   12.6619    5.6757  -11.8683 H   0  0  0  0  0  0  0  0  0  0  0  0
   13.0235    5.8069  -10.1524 H   0  0  0  0  0  0  0  0  0  0  0  0
    8.8108    1.1849   -6.3791 H   0  0  0  0  0  0  0  0  0  0  0  0
    7.4720    0.8455   -4.3342 H   0  0  0  0  0  0  0  0  0  0  0  0
    7.9470    0.0979   -2.3192 H   0  0  0  0  0  0  0  0  0  0  0  0
  1  2  2  0  0  0  0
  2  3  1  0  0  0  0
  2  9  1  0  0  0  0
  3  4  1  0  0  0  0
  3 37  1  0  0  0  0
  4  5  1  0  0  0  0
  4 38  1  0  0  0  0
  4 39  1  0  0  0  0
  5  6  1  0  0  0  0
  5  7  1  0  0  0  0
  5  8  1  0  0  0  0
  9 10  1  0  0  0  0
  9 40  1  0  0  0  0
 10 11  1  0  0  0  0
 10 36  2  0  0  0  0
 11 12  2  0  0  0  0
 11 41  1  0  0  0  0
 12 13  1  0  0  0  0
 12 42  1  0  0  0  0
 13 14  2  0  0  0  0
 13 43  1  0  0  0  0
 14 15  1  0  0  0  0
 14 36  1  0  0  0  0
 15 16  2  0  0  0  0
 15 35  1  0  0  0  0
 16 17  1  0  0  0  0
 16 44  1  0  0  0  0
 17 18  2  0  0  0  0
 18 19  1  0  0  0  0
 18 35  1  0  0  0  0
 19 20  2  0  0  0  0
 19 45  1  0  0  0  0
 20 21  1  0  0  0  0
 20 33  1  0  0  0  0
 21 22  1  0  0  0  0
 21 32  2  0  0  0  0
 22 23  2  0  0  0  0
 22 46  1  0  0  0  0
 23 24  1  0  0  0  0
 23 47  1  0  0  0  0
 24 25  1  0  0  0  0
 24 31  2  0  0  0  0
 25 26  1  0  0  0  0
 25 30  1  0  0  0  0
 26 27  1  0  0  0  0
 26 48  1  0  0  0  0
 26 49  1  0  0  0  0
 27 28  1  0  0  0  0
 27 50  1  0  0  0  0
 27 51  1  0  0  0  0
 28 29  1  0  0  0  0
 28 52  1  0  0  0  0
 28 53  1  0  0  0  0
 29 30  1  0  0  0  0
 29 54  1  0  0  0  0
 29 55  1  0  0  0  0
 30 56  1  0  0  0  0
 30 57  1  0  0  0  0
 31 32  1  0  0  0  0
 33 34  2  0  0  0  0
 33 58  1  0  0  0  0
 34 35  1  0  0  0  0
 34 59  1  0  0  0  0
 36 60  1  0  0  0  0
M  END
$$$$
