CHEMBL75034
 OpenBabel04072215383D

 44 47  0  0  0  0  0  0  0  0999 V2000
    3.4215   -2.8434   -0.9748 C   0  0  0  0  0  0  0  0  0  0  0  0
    2.8504   -2.8642   -2.2782 O   0  0  0  0  0  0  0  0  0  0  0  0
    3.1676   -1.8023   -3.0873 C   0  0  0  0  0  0  0  0  0  0  0  0
    4.3343   -1.0418   -2.9330 C   0  0  0  0  0  0  0  0  0  0  0  0
    4.6178    0.0350   -3.7809 C   0  0  0  0  0  0  0  0  0  0  0  0
    5.7291    0.8546   -3.5057 N   0  0  0  0  0  0  0  0  0  0  0  0
    6.4333    1.6452   -4.4411 C   0  0  0  0  0  0  0  0  0  0  0  0
    6.5451    1.2002   -5.7115 N   0  0  0  0  0  0  0  0  0  0  0  0
    7.1978    1.9310   -6.6451 N   0  0  0  0  0  0  0  0  0  0  0  0
    7.6894    3.1507   -6.3299 C   0  0  0  0  0  0  0  0  0  0  0  0
    8.4867    3.7966   -7.4382 C   0  0  0  0  0  0  0  0  0  0  0  0
    9.9770    3.5748   -7.2926 C   0  0  0  0  0  0  0  0  0  0  0  0
   10.5156    2.2816   -7.3376 C   0  0  0  0  0  0  0  0  0  0  0  0
   11.8785    2.1229   -7.1522 C   0  0  0  0  0  0  0  0  0  0  0  0
   12.7353    3.1447   -6.9413 N   0  0  0  0  0  0  0  0  0  0  0  0
   12.1993    4.3829   -6.9177 C   0  0  0  0  0  0  0  0  0  0  0  0
   10.8489    4.6474   -7.0902 C   0  0  0  0  0  0  0  0  0  0  0  0
    7.5551    3.6994   -5.0389 C   0  0  0  0  0  0  0  0  0  0  0  0
    7.9530    5.0117   -4.6823 C   0  0  0  0  0  0  0  0  0  0  0  0
    7.8323    5.4868   -3.3748 C   0  0  0  0  0  0  0  0  0  0  0  0
    7.3388    4.6548   -2.3820 C   0  0  0  0  0  0  0  0  0  0  0  0
    6.9033    3.3730   -2.7141 C   0  0  0  0  0  0  0  0  0  0  0  0
    6.9699    2.8864   -4.0450 C   0  0  0  0  0  0  0  0  0  0  0  0
    3.7075    0.3386   -4.8019 C   0  0  0  0  0  0  0  0  0  0  0  0
    2.5486   -0.4197   -4.9793 C   0  0  0  0  0  0  0  0  0  0  0  0
    2.2790   -1.4868   -4.1243 C   0  0  0  0  0  0  0  0  0  0  0  0
    0.8064   -2.3623   -4.3528 Cl  0  0  0  0  0  0  0  0  0  0  0  0
    2.9319   -3.6196   -0.3812 H   0  0  0  0  0  0  0  0  0  0  0  0
    3.2468   -1.8814   -0.4797 H   0  0  0  0  0  0  0  0  0  0  0  0
    4.4905   -3.0784   -1.0110 H   0  0  0  0  0  0  0  0  0  0  0  0
    5.0494   -1.2831   -2.1551 H   0  0  0  0  0  0  0  0  0  0  0  0
    6.3628    0.4962   -2.8020 H   0  0  0  0  0  0  0  0  0  0  0  0
    8.2476    4.8634   -7.5089 H   0  0  0  0  0  0  0  0  0  0  0  0
    8.1744    3.3729   -8.4032 H   0  0  0  0  0  0  0  0  0  0  0  0
    9.8861    1.4097   -7.4896 H   0  0  0  0  0  0  0  0  0  0  0  0
   12.3337    1.1338   -7.1659 H   0  0  0  0  0  0  0  0  0  0  0  0
   12.9087    5.1882   -6.7479 H   0  0  0  0  0  0  0  0  0  0  0  0
   10.4940    5.6712   -7.0576 H   0  0  0  0  0  0  0  0  0  0  0  0
    8.3364    5.6997   -5.4308 H   0  0  0  0  0  0  0  0  0  0  0  0
    8.1245    6.5063   -3.1353 H   0  0  0  0  0  0  0  0  0  0  0  0
    7.2699    5.0069   -1.3557 H   0  0  0  0  0  0  0  0  0  0  0  0
    6.4913    2.7535   -1.9192 H   0  0  0  0  0  0  0  0  0  0  0  0
    3.8796    1.1851   -5.4633 H   0  0  0  0  0  0  0  0  0  0  0  0
    1.8553   -0.1587   -5.7749 H   0  0  0  0  0  0  0  0  0  0  0  0
  1  2  1  0  0  0  0
  1 28  1  0  0  0  0
  1 29  1  0  0  0  0
  1 30  1  0  0  0  0
  2  3  1  0  0  0  0
  3  4  1  0  0  0  0
  3 26  2  0  0  0  0
  4  5  2  0  0  0  0
  4 31  1  0  0  0  0
  5  6  1  0  0  0  0
  5 24  1  0  0  0  0
  6  7  1  0  0  0  0
  6 32  1  0  0  0  0
  7  8  1  0  0  0  0
  7 23  2  0  0  0  0
  8  9  2  0  0  0  0
  9 10  1  0  0  0  0
 10 11  1  0  0  0  0
 10 18  2  0  0  0  0
 11 12  1  0  0  0  0
 11 33  1  0  0  0  0
 11 34  1  0  0  0  0
 12 13  1  0  0  0  0
 12 17  2  0  0  0  0
 13 14  2  0  0  0  0
 13 35  1  0  0  0  0
 14 15  1  0  0  0  0
 14 36  1  0  0  0  0
 15 16  2  0  0  0  0
 16 17  1  0  0  0  0
 16 37  1  0  0  0  0
 17 38  1  0  0  0  0
 18 19  1  0  0  0  0
 18 23  1  0  0  0  0
 19 20  2  0  0  0  0
 19 39  1  0  0  0  0
 20 21  1  0  0  0  0
 20 40  1  0  0  0  0
 21 22  2  0  0  0  0
 21 41  1  0  0  0  0
 22 23  1  0  0  0  0
 22 42  1  0  0  0  0
 24 25  2  0  0  0  0
 24 43  1  0  0  0  0
 25 26  1  0  0  0  0
 25 44  1  0  0  0  0
 26 27  1  0  0  0  0
M  END
$$$$
