CHEMBL4791160
 OpenBabel04072215383D

 53 57  0  0  0  0  0  0  0  0999 V2000
    1.0643    0.0599    0.3474 O   0  0  0  0  0  0  0  0  0  0  0  0
    2.2635    0.2851    0.2026 C   0  0  0  0  0  0  0  0  0  0  0  0
    2.8091    1.2002   -0.6597 N   0  0  0  0  0  0  0  0  0  0  0  0
    2.1611    2.0297   -1.5851 C   0  0  0  0  0  0  0  0  0  0  0  0
    0.7972    2.3107   -1.5468 C   0  0  0  0  0  0  0  0  0  0  0  0
    0.2262    3.1479   -2.5086 C   0  0  0  0  0  0  0  0  0  0  0  0
    1.0125    3.6884   -3.5257 C   0  0  0  0  0  0  0  0  0  0  0  0
    2.3753    3.4061   -3.5748 C   0  0  0  0  0  0  0  0  0  0  0  0
    2.9507    2.5924   -2.5976 C   0  0  0  0  0  0  0  0  0  0  0  0
    3.1460   -0.5206    0.8522 N   0  0  0  0  0  0  0  0  0  0  0  0
    4.5300   -0.4395    0.8758 C   0  0  0  0  0  0  0  0  0  0  0  0
    5.1903   -1.5358    1.2144 N   0  0  0  0  0  0  0  0  0  0  0  0
    6.5369   -1.5196    1.1490 C   0  0  0  0  0  0  0  0  0  0  0  0
    7.2442   -2.7339    1.2534 N   0  0  0  0  0  0  0  0  0  0  0  0
    6.7329   -4.0092    0.9374 C   0  0  0  0  0  0  0  0  0  0  0  0
    5.8222   -4.1865   -0.1169 C   0  0  0  0  0  0  0  0  0  0  0  0
    5.3003   -5.4430   -0.4231 C   0  0  0  0  0  0  0  0  0  0  0  0
    5.6812   -6.5488    0.3288 C   0  0  0  0  0  0  0  0  0  0  0  0
    6.5880   -6.3944    1.3765 C   0  0  0  0  0  0  0  0  0  0  0  0
    7.1163   -5.1333    1.6748 C   0  0  0  0  0  0  0  0  0  0  0  0
    7.2323   -0.3679    0.8514 C   0  0  0  0  0  0  0  0  0  0  0  0
    6.4576    0.7182    0.5144 C   0  0  0  0  0  0  0  0  0  0  0  0
    7.1961    2.2353   -0.0428 S   0  0  0  0  0  0  0  0  0  0  0  0
    7.4220    1.9462   -1.7572 C   0  0  0  0  0  0  0  0  0  0  0  0
    7.0950    0.8217   -2.4847 C   0  0  0  0  0  0  0  0  0  0  0  0
    7.4595    1.0699   -3.7823 N   0  0  0  0  0  0  0  0  0  0  0  0
    8.3759    2.0941   -3.7902 C   0  0  0  0  0  0  0  0  0  0  0  0
    9.3638    2.4394   -4.7145 C   0  0  0  0  0  0  0  0  0  0  0  0
   10.0790    3.6135   -4.4643 C   0  0  0  0  0  0  0  0  0  0  0  0
    9.7229    4.4637   -3.4175 C   0  0  0  0  0  0  0  0  0  0  0  0
    8.7441    4.0873   -2.4919 C   0  0  0  0  0  0  0  0  0  0  0  0
    8.1495    2.8178   -2.6194 C   0  0  0  0  0  0  0  0  0  0  0  0
    5.1158    0.6946    0.5022 N   0  0  0  0  0  0  0  0  0  0  0  0
    3.8236    1.2166   -0.6808 H   0  0  0  0  0  0  0  0  0  0  0  0
    0.1625    1.9131   -0.7609 H   0  0  0  0  0  0  0  0  0  0  0  0
   -0.8341    3.3777   -2.4575 H   0  0  0  0  0  0  0  0  0  0  0  0
    0.5622    4.3313   -4.2768 H   0  0  0  0  0  0  0  0  0  0  0  0
    2.9901    3.8164   -4.3715 H   0  0  0  0  0  0  0  0  0  0  0  0
    4.0153    2.3776   -2.6556 H   0  0  0  0  0  0  0  0  0  0  0  0
    2.7679   -1.3384    1.2890 H   0  0  0  0  0  0  0  0  0  0  0  0
    7.9858   -2.7184    1.9405 H   0  0  0  0  0  0  0  0  0  0  0  0
    5.5121   -3.3366   -0.7208 H   0  0  0  0  0  0  0  0  0  0  0  0
    4.5953   -5.5508   -1.2429 H   0  0  0  0  0  0  0  0  0  0  0  0
    5.2679   -7.5273    0.1006 H   0  0  0  0  0  0  0  0  0  0  0  0
    6.8787   -7.2578    1.9691 H   0  0  0  0  0  0  0  0  0  0  0  0
    7.8118   -5.0395    2.5036 H   0  0  0  0  0  0  0  0  0  0  0  0
    8.3088   -0.3514    0.7866 H   0  0  0  0  0  0  0  0  0  0  0  0
    6.6267   -0.1170   -2.2224 H   0  0  0  0  0  0  0  0  0  0  0  0
    7.1853    0.5251   -4.5895 H   0  0  0  0  0  0  0  0  0  0  0  0
    9.6166    1.7923   -5.5477 H   0  0  0  0  0  0  0  0  0  0  0  0
   10.9197    3.8741   -5.1029 H   0  0  0  0  0  0  0  0  0  0  0  0
   10.2452    5.4078   -3.2858 H   0  0  0  0  0  0  0  0  0  0  0  0
    8.5010    4.7345   -1.6544 H   0  0  0  0  0  0  0  0  0  0  0  0
  1  2  2  0  0  0  0
  2  3  1  0  0  0  0
  2 10  1  0  0  0  0
  3  4  1  0  0  0  0
  3 34  1  0  0  0  0
  4  5  1  0  0  0  0
  4  9  2  0  0  0  0
  5  6  2  0  0  0  0
  5 35  1  0  0  0  0
  6  7  1  0  0  0  0
  6 36  1  0  0  0  0
  7  8  2  0  0  0  0
  7 37  1  0  0  0  0
  8  9  1  0  0  0  0
  8 38  1  0  0  0  0
  9 39  1  0  0  0  0
 10 11  1  0  0  0  0
 10 40  1  0  0  0  0
 11 12  1  0  0  0  0
 11 33  2  0  0  0  0
 12 13  2  0  0  0  0
 13 14  1  0  0  0  0
 13 21  1  0  0  0  0
 14 15  1  0  0  0  0
 14 41  1  0  0  0  0
 15 16  1  0  0  0  0
 15 20  2  0  0  0  0
 16 17  2  0  0  0  0
 16 42  1  0  0  0  0
 17 18  1  0  0  0  0
 17 43  1  0  0  0  0
 18 19  2  0  0  0  0
 18 44  1  0  0  0  0
 19 20  1  0  0  0  0
 19 45  1  0  0  0  0
 20 46  1  0  0  0  0
 21 22  2  0  0  0  0
 21 47  1  0  0  0  0
 22 23  1  0  0  0  0
 22 33  1  0  0  0  0
 23 24  1  0  0  0  0
 24 25  2  0  0  0  0
 24 32  1  0  0  0  0
 25 26  1  0  0  0  0
 25 48  1  0  0  0  0
 26 27  1  0  0  0  0
 26 49  1  0  0  0  0
 27 28  1  0  0  0  0
 27 32  2  0  0  0  0
 28 29  2  0  0  0  0
 28 50  1  0  0  0  0
 29 30  1  0  0  0  0
 29 51  1  0  0  0  0
 30 31  2  0  0  0  0
 30 52  1  0  0  0  0
 31 32  1  0  0  0  0
 31 53  1  0  0  0  0
M  END
$$$$
