CHEMBL3966058
 OpenBabel04072215373D

 59 62  0  0  0  0  0  0  0  0999 V2000
    0.9867   -0.9360    0.4405 C   0  0  0  0  0  0  0  0  0  0  0  0
    2.4376   -0.5427    0.4708 C   0  0  0  0  0  0  0  0  0  0  0  0
    2.7483    0.6370    0.3422 O   0  0  0  0  0  0  0  0  0  0  0  0
    3.2997   -1.6253    0.6093 N   0  0  0  0  0  0  0  0  0  0  0  0
    4.7018   -1.5449    0.7877 C   0  0  0  0  0  0  0  0  0  0  0  0
    5.3346   -0.3529    1.1294 C   0  0  0  0  0  0  0  0  0  0  0  0
    6.7088   -0.2611    1.3910 C   0  0  0  0  0  0  0  0  0  0  0  0
    7.2871    0.9511    1.8747 N   0  0  0  0  0  0  0  0  0  0  0  0
    6.5320    1.8624    2.6021 C   0  0  0  0  0  0  0  0  0  0  0  0
    5.3862    1.6182    2.9639 O   0  0  0  0  0  0  0  0  0  0  0  0
    7.1861    3.0485    2.8969 N   0  0  0  0  0  0  0  0  0  0  0  0
    6.5740    4.1114    3.6286 C   0  0  0  0  0  0  0  0  0  0  0  0
    5.3627    3.9474    4.3133 C   0  0  0  0  0  0  0  0  0  0  0  0
    4.7019    5.0108    4.9219 C   0  0  0  0  0  0  0  0  0  0  0  0
    5.3080    6.2570    4.9912 C   0  0  0  0  0  0  0  0  0  0  0  0
    4.7424    7.3285    5.6542 O   0  0  0  0  0  0  0  0  0  0  0  0
    3.9890    7.0919    6.7931 C   0  0  0  0  0  0  0  0  0  0  0  0
    4.2532    6.0535    7.6849 C   0  0  0  0  0  0  0  0  0  0  0  0
    3.3970    5.8815    8.7486 C   0  0  0  0  0  0  0  0  0  0  0  0
    2.3716    6.7083    9.0076 N   0  0  0  0  0  0  0  0  0  0  0  0
    2.1572    7.7562    8.1968 C   0  0  0  0  0  0  0  0  0  0  0  0
    1.1125    8.6492    8.4983 N   0  0  0  0  0  0  0  0  0  0  0  0
    0.2899    8.5118    9.6015 C   0  0  0  0  0  0  0  0  0  0  0  0
    0.3137    7.6281   10.4481 O   0  0  0  0  0  0  0  0  0  0  0  0
   -0.7200    9.6095    9.7544 C   0  0  0  0  0  0  0  0  0  0  0  0
   -1.1196   10.0644   11.1437 C   0  0  0  0  0  0  0  0  0  0  0  0
   -2.0887    9.2747   10.3133 C   0  0  0  0  0  0  0  0  0  0  0  0
    2.9401    7.9787    7.0649 C   0  0  0  0  0  0  0  0  0  0  0  0
    6.5287    6.4319    4.3320 C   0  0  0  0  0  0  0  0  0  0  0  0
    7.1216    7.6363    4.3370 F   0  0  0  0  0  0  0  0  0  0  0  0
    7.1624    5.3769    3.6501 C   0  0  0  0  0  0  0  0  0  0  0  0
    7.4945   -1.3926    1.1918 C   0  0  0  0  0  0  0  0  0  0  0  0
    6.8888   -2.6173    0.8347 C   0  0  0  0  0  0  0  0  0  0  0  0
    7.7198   -3.8637    0.6459 C   0  0  0  0  0  0  0  0  0  0  0  0
    9.0535   -3.6674    0.8404 F   0  0  0  0  0  0  0  0  0  0  0  0
    7.3607   -4.8620    1.4986 F   0  0  0  0  0  0  0  0  0  0  0  0
    7.5973   -4.3809   -0.6076 F   0  0  0  0  0  0  0  0  0  0  0  0
    5.4870   -2.6888    0.6637 C   0  0  0  0  0  0  0  0  0  0  0  0
    0.3794   -0.0347    0.3011 H   0  0  0  0  0  0  0  0  0  0  0  0
    0.7009   -1.4017    1.3865 H   0  0  0  0  0  0  0  0  0  0  0  0
    0.8006   -1.6129   -0.3958 H   0  0  0  0  0  0  0  0  0  0  0  0
    2.8982   -2.5498    0.5210 H   0  0  0  0  0  0  0  0  0  0  0  0
    4.7290    0.5382    1.2306 H   0  0  0  0  0  0  0  0  0  0  0  0
    8.2865    0.9774    2.0052 H   0  0  0  0  0  0  0  0  0  0  0  0
    8.0257    3.2588    2.3779 H   0  0  0  0  0  0  0  0  0  0  0  0
    4.8676    2.9874    4.4097 H   0  0  0  0  0  0  0  0  0  0  0  0
    3.7276    4.8166    5.3621 H   0  0  0  0  0  0  0  0  0  0  0  0
    5.0767    5.3622    7.5520 H   0  0  0  0  0  0  0  0  0  0  0  0
    3.5108    5.0533    9.4423 H   0  0  0  0  0  0  0  0  0  0  0  0
    0.9814    9.4394    7.8874 H   0  0  0  0  0  0  0  0  0  0  0  0
   -0.6964   10.3836    8.9936 H   0  0  0  0  0  0  0  0  0  0  0  0
   -1.3287   11.1146   11.3065 H   0  0  0  0  0  0  0  0  0  0  0  0
   -0.6687    9.5667   11.9972 H   0  0  0  0  0  0  0  0  0  0  0  0
   -2.9528    9.7896    9.9126 H   0  0  0  0  0  0  0  0  0  0  0  0
   -2.2842    8.2482   10.6105 H   0  0  0  0  0  0  0  0  0  0  0  0
    2.7520    8.8127    6.3988 H   0  0  0  0  0  0  0  0  0  0  0  0
    8.0974    5.5789    3.1416 H   0  0  0  0  0  0  0  0  0  0  0  0
    8.5698   -1.3497    1.3476 H   0  0  0  0  0  0  0  0  0  0  0  0
    5.0308   -3.6449    0.4111 H   0  0  0  0  0  0  0  0  0  0  0  0
  1  2  1  0  0  0  0
  1 39  1  0  0  0  0
  1 40  1  0  0  0  0
  1 41  1  0  0  0  0
  2  3  2  0  0  0  0
  2  4  1  0  0  0  0
  4  5  1  0  0  0  0
  4 42  1  0  0  0  0
  5  6  1  0  0  0  0
  5 38  2  0  0  0  0
  6  7  2  0  0  0  0
  6 43  1  0  0  0  0
  7  8  1  0  0  0  0
  7 32  1  0  0  0  0
  8  9  1  0  0  0  0
  8 44  1  0  0  0  0
  9 10  2  0  0  0  0
  9 11  1  0  0  0  0
 11 12  1  0  0  0  0
 11 45  1  0  0  0  0
 12 13  1  0  0  0  0
 12 31  2  0  0  0  0
 13 14  2  0  0  0  0
 13 46  1  0  0  0  0
 14 15  1  0  0  0  0
 14 47  1  0  0  0  0
 15 16  1  0  0  0  0
 15 29  2  0  0  0  0
 16 17  1  0  0  0  0
 17 18  1  0  0  0  0
 17 28  2  0  0  0  0
 18 19  2  0  0  0  0
 18 48  1  0  0  0  0
 19 20  1  0  0  0  0
 19 49  1  0  0  0  0
 20 21  2  0  0  0  0
 21 22  1  0  0  0  0
 21 28  1  0  0  0  0
 22 23  1  0  0  0  0
 22 50  1  0  0  0  0
 23 24  2  0  0  0  0
 23 25  1  0  0  0  0
 25 26  1  0  0  0  0
 25 27  1  0  0  0  0
 25 51  1  0  0  0  0
 26 27  1  0  0  0  0
 26 52  1  0  0  0  0
 26 53  1  0  0  0  0
 27 54  1  0  0  0  0
 27 55  1  0  0  0  0
 28 56  1  0  0  0  0
 29 30  1  0  0  0  0
 29 31  1  0  0  0  0
 31 57  1  0  0  0  0
 32 33  2  0  0  0  0
 32 58  1  0  0  0  0
 33 34  1  0  0  0  0
 33 38  1  0  0  0  0
 34 35  1  0  0  0  0
 34 36  1  0  0  0  0
 34 37  1  0  0  0  0
 38 59  1  0  0  0  0
M  END
$$$$
