CHEMBL3898322
 OpenBabel04072215373D

 70 73  0  0  1  0  0  0  0  0999 V2000
    1.3153   -4.0562    3.6417 C   0  0  0  0  0  0  0  0  0  0  0  0
    2.6544   -3.7539    3.5429 O   0  0  0  0  0  0  0  0  0  0  0  0
    3.2435   -2.9078    2.6576 C   0  0  0  0  0  0  0  0  0  0  0  0
    2.5119   -2.2424    1.6315 C   0  0  0  0  0  0  0  0  0  0  0  0
    3.1547   -1.3328    0.7810 C   0  0  0  0  0  0  0  0  0  0  0  0
    2.4606   -0.6628   -0.1947 O   0  0  0  0  0  0  0  0  0  0  0  0
    3.0029    0.3196   -1.0181 C   0  0  0  0  0  0  0  0  0  0  0  0
    4.5219   -1.1061    0.9593 C   0  0  0  0  0  0  0  0  0  0  0  0
    5.2628   -1.7426    1.9555 C   0  0  0  0  0  0  0  0  0  0  0  0
    6.6378   -1.3662    2.1573 N   0  0  0  0  0  0  0  0  0  0  0  0
    7.1287   -0.0682    1.5730 C   0  0  0  0  0  0  0  0  0  0  0  0
    6.4228    1.3161    1.9604 C   0  0  0  0  0  0  0  0  0  0  0  0
    7.2076    2.4376    1.3429 N   0  0  0  0  0  0  0  0  0  0  0  0
    8.4867    2.6477    2.0413 C   0  0  0  0  0  0  0  0  0  0  0  0
    8.3327    3.9546    2.7781 C   0  0  0  0  0  0  0  0  0  0  0  0
    7.7329    4.7953    1.6915 C   0  0  0  0  0  0  0  0  0  0  0  0
    6.6818    3.8347    1.0936 C   0  0  2  0  0  0  0  0  0  0  0  0
    5.2728    4.2057    1.6199 C   0  0  0  0  0  0  0  0  0  0  0  0
    4.9791    5.5542    1.3184 O   0  0  0  0  0  0  0  0  0  0  0  0
    7.6663   -2.1605    2.8210 C   0  0  0  0  0  0  0  0  0  0  0  0
    8.3937   -1.4346    3.7423 C   0  0  0  0  0  0  0  0  0  0  0  0
    9.6255   -1.8240    4.1487 C   0  0  0  0  0  0  0  0  0  0  0  0
   10.1700   -2.9847    3.6959 C   0  0  0  0  0  0  0  0  0  0  0  0
   11.4780   -3.1254    3.9293 N   0  0  0  0  0  0  0  0  0  0  0  0
   12.1322   -4.2342    3.6187 C   0  0  0  0  0  0  0  0  0  0  0  0
   11.4236   -5.3732    3.2417 C   0  0  0  0  0  0  0  0  0  0  0  0
   12.1384   -6.6468    3.7232 C   0  0  0  0  0  0  0  0  0  0  0  0
   13.2397   -6.5782    4.6085 C   0  0  0  0  0  0  0  0  0  0  0  0
   13.5326   -7.7759    5.0973 N   0  0  0  0  0  0  0  0  0  0  0  0
   12.6961   -8.6264    4.5681 N   0  0  0  0  0  0  0  0  0  0  0  0
   12.6801  -10.0074    5.0547 C   0  0  0  0  0  0  0  0  0  0  0  0
   11.8499   -8.0161    3.6954 C   0  0  0  0  0  0  0  0  0  0  0  0
   10.0888   -5.2081    2.8190 N   0  0  0  0  0  0  0  0  0  0  0  0
    9.4555   -3.9531    2.9754 C   0  0  0  0  0  0  0  0  0  0  0  0
    8.1390   -3.5178    2.4763 C   0  0  0  0  0  0  0  0  0  0  0  0
    4.6149   -2.6618    2.7969 C   0  0  0  0  0  0  0  0  0  0  0  0
   -1.4786   -1.3075    0.5584 Cl  0  0  0  0  0  0  0  0  0  0  0  0
    1.1616   -4.7204    4.5147 H   0  0  0  0  0  0  0  0  0  0  0  0
    0.9614   -4.5718    2.7294 H   0  0  0  0  0  0  0  0  0  0  0  0
    0.7152   -3.1263    3.8138 H   0  0  0  0  0  0  0  0  0  0  0  0
    1.4667   -2.4280    1.5140 H   0  0  0  0  0  0  0  0  0  0  0  0
    2.2254    0.7097   -1.7118 H   0  0  0  0  0  0  0  0  0  0  0  0
    3.8281   -0.0987   -1.6298 H   0  0  0  0  0  0  0  0  0  0  0  0
    3.3903    1.1739   -0.4167 H   0  0  0  0  0  0  0  0  0  0  0  0
    5.0052   -0.4118    0.3017 H   0  0  0  0  0  0  0  0  0  0  0  0
    7.1356   -0.1421    0.4704 H   0  0  0  0  0  0  0  0  0  0  0  0
    8.2055    0.0364    1.8050 H   0  0  0  0  0  0  0  0  0  0  0  0
    6.3602    1.4612    3.0633 H   0  0  0  0  0  0  0  0  0  0  0  0
    5.3819    1.3433    1.5835 H   0  0  0  0  0  0  0  0  0  0  0  0
    9.2789    2.7393    1.2624 H   0  0  0  0  0  0  0  0  0  0  0  0
    8.7825    1.8507    2.7501 H   0  0  0  0  0  0  0  0  0  0  0  0
    9.2869    4.3461    3.1857 H   0  0  0  0  0  0  0  0  0  0  0  0
    7.5966    3.8190    3.6029 H   0  0  0  0  0  0  0  0  0  0  0  0
    8.5315    4.9720    0.9348 H   0  0  0  0  0  0  0  0  0  0  0  0
    7.3708    5.7921    2.0290 H   0  0  0  0  0  0  0  0  0  0  0  0
    6.6414    4.0210   -0.0012 H   0  0  0  0  0  0  0  0  0  0  0  0
    4.4892    3.5707    1.1590 H   0  0  0  0  0  0  0  0  0  0  0  0
    5.2227    4.0963    2.7208 H   0  0  0  0  0  0  0  0  0  0  0  0
    5.0021    5.6656    0.3287 H   0  0  0  0  0  0  0  0  0  0  0  0
    8.0508   -0.4726    4.0826 H   0  0  0  0  0  0  0  0  0  0  0  0
   10.2123   -1.1764    4.7847 H   0  0  0  0  0  0  0  0  0  0  0  0
   13.1741   -4.2143    3.8566 H   0  0  0  0  0  0  0  0  0  0  0  0
   13.7660   -5.7240    5.0027 H   0  0  0  0  0  0  0  0  0  0  0  0
   13.3739  -10.0932    5.9276 H   0  0  0  0  0  0  0  0  0  0  0  0
   13.0062  -10.7135    4.2721 H   0  0  0  0  0  0  0  0  0  0  0  0
   11.6670  -10.2418    5.4359 H   0  0  0  0  0  0  0  0  0  0  0  0
   11.0438   -8.5145    3.1778 H   0  0  0  0  0  0  0  0  0  0  0  0
    7.5888   -4.1493    1.7755 H   0  0  0  0  0  0  0  0  0  0  0  0
    5.1572   -3.1496    3.5953 H   0  0  0  0  0  0  0  0  0  0  0  0
   -0.1524   -1.0306    0.7726 H   0  0  0  0  0  0  0  0  0  0  0  0
  1  2  1  0  0  0  0
  1 38  1  0  0  0  0
  1 39  1  0  0  0  0
  1 40  1  0  0  0  0
  2  3  1  0  0  0  0
  3  4  1  0  0  0  0
  3 36  2  0  0  0  0
  4  5  2  0  0  0  0
  4 41  1  0  0  0  0
  5  6  1  0  0  0  0
  5  8  1  0  0  0  0
  6  7  1  0  0  0  0
  7 42  1  0  0  0  0
  7 43  1  0  0  0  0
  7 44  1  0  0  0  0
  8  9  2  0  0  0  0
  8 45  1  0  0  0  0
  9 10  1  0  0  0  0
  9 36  1  0  0  0  0
 10 11  1  0  0  0  0
 10 20  1  0  0  0  0
 11 12  1  0  0  0  0
 11 46  1  0  0  0  0
 11 47  1  0  0  0  0
 12 13  1  0  0  0  0
 12 48  1  0  0  0  0
 12 49  1  0  0  0  0
 13 14  1  0  0  0  0
 13 17  1  0  0  0  0
 14 15  1  0  0  0  0
 14 50  1  0  0  0  0
 14 51  1  0  0  0  0
 15 16  1  0  0  0  0
 15 52  1  0  0  0  0
 15 53  1  0  0  0  0
 16 17  1  0  0  0  0
 16 54  1  0  0  0  0
 16 55  1  0  0  0  0
 17 18  1  0  0  0  0
 17 56  1  6  0  0  0
 18 19  1  0  0  0  0
 18 57  1  0  0  0  0
 18 58  1  0  0  0  0
 19 59  1  0  0  0  0
 20 21  1  0  0  0  0
 20 35  2  0  0  0  0
 21 22  2  0  0  0  0
 21 60  1  0  0  0  0
 22 23  1  0  0  0  0
 22 61  1  0  0  0  0
 23 24  1  0  0  0  0
 23 34  2  0  0  0  0
 24 25  2  0  0  0  0
 25 26  1  0  0  0  0
 25 62  1  0  0  0  0
 26 27  1  0  0  0  0
 26 33  2  0  0  0  0
 27 28  1  0  0  0  0
 27 32  2  0  0  0  0
 28 29  2  0  0  0  0
 28 63  1  0  0  0  0
 29 30  1  0  0  0  0
 30 31  1  0  0  0  0
 30 32  1  0  0  0  0
 31 64  1  0  0  0  0
 31 65  1  0  0  0  0
 31 66  1  0  0  0  0
 32 67  1  0  0  0  0
 33 34  1  0  0  0  0
 34 35  1  0  0  0  0
 35 68  1  0  0  0  0
 36 69  1  0  0  0  0
 37 70  1  0  0  0  0
M  END
$$$$
