CHEMBL2016926
 OpenBabel04072215363D

 48 52  0  0  0  0  0  0  0  0999 V2000
    1.2711   -0.4096    0.3766 O   0  0  0  0  0  0  0  0  0  0  0  0
    2.4328   -0.1002    0.1106 C   0  0  0  0  0  0  0  0  0  0  0  0
    3.1088   -0.6906   -1.1205 C   0  0  0  0  0  0  0  0  0  0  0  0
    2.9636    0.1336   -2.3761 C   0  0  0  0  0  0  0  0  0  0  0  0
    4.0915    0.5812   -3.0726 C   0  0  0  0  0  0  0  0  0  0  0  0
    3.9106    1.3148   -4.2357 C   0  0  0  0  0  0  0  0  0  0  0  0
    2.7024    1.6206   -4.7505 N   0  0  0  0  0  0  0  0  0  0  0  0
    1.6241    1.1662   -4.0751 C   0  0  0  0  0  0  0  0  0  0  0  0
    1.7022    0.4299   -2.9022 C   0  0  0  0  0  0  0  0  0  0  0  0
    3.1759    0.7776    0.9230 N   0  0  0  0  0  0  0  0  0  0  0  0
    2.4340    1.3317    2.0818 C   0  0  0  0  0  0  0  0  0  0  0  0
    3.2746    1.9553    3.2148 C   0  0  0  0  0  0  0  0  0  0  0  0
    4.5317    2.5177    2.6899 C   0  0  0  0  0  0  0  0  0  0  0  0
    5.4277    3.2553    3.4066 N   0  0  0  0  0  0  0  0  0  0  0  0
    6.3846    3.5995    2.5506 C   0  0  0  0  0  0  0  0  0  0  0  0
    7.4893    4.4935    2.7343 C   0  0  0  0  0  0  0  0  0  0  0  0
    7.8434    4.8016    3.9979 C   0  0  0  0  0  0  0  0  0  0  0  0
    8.5894    6.0271    4.2698 C   0  0  0  0  0  0  0  0  0  0  0  0
    8.7558    6.4574    5.5797 C   0  0  0  0  0  0  0  0  0  0  0  0
    8.7984    7.8227    5.8133 C   0  0  0  0  0  0  0  0  0  0  0  0
    8.5674    8.2824    7.0489 F   0  0  0  0  0  0  0  0  0  0  0  0
    8.9783    8.7250    4.7635 C   0  0  0  0  0  0  0  0  0  0  0  0
    9.1266    8.2479    3.4617 C   0  0  0  0  0  0  0  0  0  0  0  0
    8.8465    6.9063    3.2079 C   0  0  0  0  0  0  0  0  0  0  0  0
    8.7135    6.4384    1.8939 N   0  0  0  0  0  0  0  0  0  0  0  0
    8.0847    5.2360    1.5913 C   0  0  0  0  0  0  0  0  0  0  0  0
    7.9879    4.8532    0.4311 O   0  0  0  0  0  0  0  0  0  0  0  0
    6.1241    3.0496    1.3079 N   0  0  0  0  0  0  0  0  0  0  0  0
    4.9568    2.3401    1.4020 C   0  0  0  0  0  0  0  0  0  0  0  0
    4.2681    1.5847    0.3401 C   0  0  0  0  0  0  0  0  0  0  0  0
    2.6518   -1.6731   -1.3016 H   0  0  0  0  0  0  0  0  0  0  0  0
    4.1595   -0.9097   -0.8984 H   0  0  0  0  0  0  0  0  0  0  0  0
    5.0958    0.3640   -2.7273 H   0  0  0  0  0  0  0  0  0  0  0  0
    4.7614    1.6838   -4.8027 H   0  0  0  0  0  0  0  0  0  0  0  0
    0.6638    1.4123   -4.5190 H   0  0  0  0  0  0  0  0  0  0  0  0
    0.7913    0.0899   -2.4165 H   0  0  0  0  0  0  0  0  0  0  0  0
    1.8173    0.5373    2.5208 H   0  0  0  0  0  0  0  0  0  0  0  0
    1.7395    2.0785    1.6766 H   0  0  0  0  0  0  0  0  0  0  0  0
    3.5107    1.1952    3.9676 H   0  0  0  0  0  0  0  0  0  0  0  0
    2.6835    2.7332    3.7123 H   0  0  0  0  0  0  0  0  0  0  0  0
    7.3625    4.3188    4.8466 H   0  0  0  0  0  0  0  0  0  0  0  0
    8.7195    5.7723    6.4187 H   0  0  0  0  0  0  0  0  0  0  0  0
    8.9805    9.7891    4.9760 H   0  0  0  0  0  0  0  0  0  0  0  0
    9.3304    8.9458    2.6557 H   0  0  0  0  0  0  0  0  0  0  0  0
    8.9975    7.0112    1.1112 H   0  0  0  0  0  0  0  0  0  0  0  0
    6.6890    3.2150    0.4823 H   0  0  0  0  0  0  0  0  0  0  0  0
    4.9793    0.9290   -0.1680 H   0  0  0  0  0  0  0  0  0  0  0  0
    3.8253    2.2677   -0.3919 H   0  0  0  0  0  0  0  0  0  0  0  0
  1  2  2  0  0  0  0
  2  3  1  0  0  0  0
  2 10  1  0  0  0  0
  3  4  1  0  0  0  0
  3 31  1  0  0  0  0
  3 32  1  0  0  0  0
  4  5  1  0  0  0  0
  4  9  2  0  0  0  0
  5  6  2  0  0  0  0
  5 33  1  0  0  0  0
  6  7  1  0  0  0  0
  6 34  1  0  0  0  0
  7  8  2  0  0  0  0
  8  9  1  0  0  0  0
  8 35  1  0  0  0  0
  9 36  1  0  0  0  0
 10 11  1  0  0  0  0
 10 30  1  0  0  0  0
 11 12  1  0  0  0  0
 11 37  1  0  0  0  0
 11 38  1  0  0  0  0
 12 13  1  0  0  0  0
 12 39  1  0  0  0  0
 12 40  1  0  0  0  0
 13 14  1  0  0  0  0
 13 29  2  0  0  0  0
 14 15  2  0  0  0  0
 15 16  1  0  0  0  0
 15 28  1  0  0  0  0
 16 17  2  0  0  0  0
 16 26  1  0  0  0  0
 17 18  1  0  0  0  0
 17 41  1  0  0  0  0
 18 19  1  0  0  0  0
 18 24  2  0  0  0  0
 19 20  2  0  0  0  0
 19 42  1  0  0  0  0
 20 21  1  0  0  0  0
 20 22  1  0  0  0  0
 22 23  2  0  0  0  0
 22 43  1  0  0  0  0
 23 24  1  0  0  0  0
 23 44  1  0  0  0  0
 24 25  1  0  0  0  0
 25 26  1  0  0  0  0
 25 45  1  0  0  0  0
 26 27  2  0  0  0  0
 28 29  1  0  0  0  0
 28 46  1  0  0  0  0
 29 30  1  0  0  0  0
 30 47  1  0  0  0  0
 30 48  1  0  0  0  0
M  END
$$$$
