CHEMBL3917295
 OpenBabel04072215373D

 74 78  0  0  0  0  0  0  0  0999 V2000
    0.6399    2.2894    3.2899 C   0  0  0  0  0  0  0  0  0  0  0  0
    2.0009    2.7347    3.2793 O   0  0  0  0  0  0  0  0  0  0  0  0
    2.9062    1.9707    2.5764 C   0  0  0  0  0  0  0  0  0  0  0  0
    2.5774    0.7850    1.9135 C   0  0  0  0  0  0  0  0  0  0  0  0
    3.5791    0.0510    1.2934 C   0  0  0  0  0  0  0  0  0  0  0  0
    3.4079   -1.0545    0.5112 O   0  0  0  0  0  0  0  0  0  0  0  0
    2.3121   -1.8897    0.8314 C   0  0  0  0  0  0  0  0  0  0  0  0
    4.9027    0.4714    1.3760 C   0  0  0  0  0  0  0  0  0  0  0  0
    5.2813    1.6905    1.9417 C   0  0  0  0  0  0  0  0  0  0  0  0
    6.6854    2.0037    1.9454 N   0  0  0  0  0  0  0  0  0  0  0  0
    7.2387    2.3945    0.5996 C   0  0  0  0  0  0  0  0  0  0  0  0
    6.7400    1.6472   -0.6961 C   0  0  0  0  0  0  0  0  0  0  0  0
    5.3866    1.9388   -1.2188 N   0  0  0  0  0  0  0  0  0  0  0  0
    4.9012    0.9546   -2.2145 C   0  0  0  0  0  0  0  0  0  0  0  0
    5.8034    0.7816   -3.4417 C   0  0  0  0  0  0  0  0  0  0  0  0
    5.8532    2.0565   -4.2705 C   0  0  0  0  0  0  0  0  0  0  0  0
    4.4876    2.4345   -4.7447 N   0  0  0  0  0  0  0  0  0  0  0  0
    4.4694    3.8039   -5.7661 S   0  0  0  0  0  0  0  0  0  0  0  0
    5.1170    3.1073   -7.1108 N   0  0  0  0  0  0  0  0  0  0  0  0
    3.1023    4.1377   -6.0740 O   0  0  0  0  0  0  0  0  0  0  0  0
    5.4193    4.7666   -5.2556 O   0  0  0  0  0  0  0  0  0  0  0  0
    3.4993    2.5537   -3.6184 C   0  0  0  0  0  0  0  0  0  0  0  0
    3.4979    1.3044   -2.7414 C   0  0  0  0  0  0  0  0  0  0  0  0
    7.4656    2.2599    3.1244 C   0  0  0  0  0  0  0  0  0  0  0  0
    6.7875    2.3625    4.3377 C   0  0  0  0  0  0  0  0  0  0  0  0
    7.4006    2.7792    5.5042 C   0  0  0  0  0  0  0  0  0  0  0  0
    8.7597    2.9358    5.5795 C   0  0  0  0  0  0  0  0  0  0  0  0
    9.1595    3.3913    6.7693 N   0  0  0  0  0  0  0  0  0  0  0  0
   10.4696    3.3291    7.0174 C   0  0  0  0  0  0  0  0  0  0  0  0
   11.3556    2.7762    6.1163 C   0  0  0  0  0  0  0  0  0  0  0  0
   12.6551    2.4110    6.6792 C   0  0  0  0  0  0  0  0  0  0  0  0
   13.1181    1.1458    7.1320 C   0  0  0  0  0  0  0  0  0  0  0  0
   14.2464    1.2250    7.8508 N   0  0  0  0  0  0  0  0  0  0  0  0
   14.5066    2.5425    7.8793 N   0  0  0  0  0  0  0  0  0  0  0  0
   15.7857    3.0298    8.3420 C   0  0  0  0  0  0  0  0  0  0  0  0
   13.5001    3.2948    7.3369 C   0  0  0  0  0  0  0  0  0  0  0  0
   10.9488    2.4297    4.8393 N   0  0  0  0  0  0  0  0  0  0  0  0
    9.5874    2.5648    4.5169 C   0  0  0  0  0  0  0  0  0  0  0  0
    8.8952    2.3214    3.2532 C   0  0  0  0  0  0  0  0  0  0  0  0
    4.2451    2.4413    2.5474 C   0  0  0  0  0  0  0  0  0  0  0  0
    0.0358    3.0214    3.8370 H   0  0  0  0  0  0  0  0  0  0  0  0
    0.5317    1.3271    3.8057 H   0  0  0  0  0  0  0  0  0  0  0  0
    0.2342    2.2324    2.2736 H   0  0  0  0  0  0  0  0  0  0  0  0
    1.5533    0.4402    1.8627 H   0  0  0  0  0  0  0  0  0  0  0  0
    2.3630   -2.7499    0.1580 H   0  0  0  0  0  0  0  0  0  0  0  0
    1.3542   -1.3919    0.6600 H   0  0  0  0  0  0  0  0  0  0  0  0
    2.3981   -2.2542    1.8591 H   0  0  0  0  0  0  0  0  0  0  0  0
    5.6626   -0.1762    0.9563 H   0  0  0  0  0  0  0  0  0  0  0  0
    8.3173    2.2016    0.6042 H   0  0  0  0  0  0  0  0  0  0  0  0
    7.1182    3.4755    0.4503 H   0  0  0  0  0  0  0  0  0  0  0  0
    6.8675    0.5693   -0.5533 H   0  0  0  0  0  0  0  0  0  0  0  0
    7.4429    1.9215   -1.4927 H   0  0  0  0  0  0  0  0  0  0  0  0
    5.3310    2.8965   -1.5585 H   0  0  0  0  0  0  0  0  0  0  0  0
    4.8192   -0.0170   -1.7116 H   0  0  0  0  0  0  0  0  0  0  0  0
    5.4148   -0.0399   -4.0603 H   0  0  0  0  0  0  0  0  0  0  0  0
    6.8148    0.4809   -3.1493 H   0  0  0  0  0  0  0  0  0  0  0  0
    6.4979    1.8694   -5.1329 H   0  0  0  0  0  0  0  0  0  0  0  0
    6.2878    2.8725   -3.6883 H   0  0  0  0  0  0  0  0  0  0  0  0
    4.5268    2.3862   -7.5130 H   0  0  0  0  0  0  0  0  0  0  0  0
    6.1205    2.9660   -7.0922 H   0  0  0  0  0  0  0  0  0  0  0  0
    2.4928    2.6666   -4.0389 H   0  0  0  0  0  0  0  0  0  0  0  0
    3.7207    3.4427   -3.0212 H   0  0  0  0  0  0  0  0  0  0  0  0
    3.1251    0.4593   -3.3402 H   0  0  0  0  0  0  0  0  0  0  0  0
    2.7867    1.4253   -1.9160 H   0  0  0  0  0  0  0  0  0  0  0  0
    5.7323    2.1467    4.4254 H   0  0  0  0  0  0  0  0  0  0  0  0
    6.7975    2.9338    6.3910 H   0  0  0  0  0  0  0  0  0  0  0  0
   10.7686    3.6705    8.0003 H   0  0  0  0  0  0  0  0  0  0  0  0
   12.6578    0.1731    7.0115 H   0  0  0  0  0  0  0  0  0  0  0  0
   16.4123    2.1925    8.6614 H   0  0  0  0  0  0  0  0  0  0  0  0
   15.6361    3.7276    9.1695 H   0  0  0  0  0  0  0  0  0  0  0  0
   16.2604    3.5379    7.4980 H   0  0  0  0  0  0  0  0  0  0  0  0
   13.4861    4.3697    7.4530 H   0  0  0  0  0  0  0  0  0  0  0  0
    9.5306    2.1294    2.3882 H   0  0  0  0  0  0  0  0  0  0  0  0
    4.4640    3.3866    3.0432 H   0  0  0  0  0  0  0  0  0  0  0  0
  1  2  1  0  0  0  0
  1 41  1  0  0  0  0
  1 42  1  0  0  0  0
  1 43  1  0  0  0  0
  2  3  1  0  0  0  0
  3  4  1  0  0  0  0
  3 40  2  0  0  0  0
  4  5  2  0  0  0  0
  4 44  1  0  0  0  0
  5  6  1  0  0  0  0
  5  8  1  0  0  0  0
  6  7  1  0  0  0  0
  7 45  1  0  0  0  0
  7 46  1  0  0  0  0
  7 47  1  0  0  0  0
  8  9  2  0  0  0  0
  8 48  1  0  0  0  0
  9 10  1  0  0  0  0
  9 40  1  0  0  0  0
 10 11  1  0  0  0  0
 10 24  1  0  0  0  0
 11 12  1  0  0  0  0
 11 49  1  0  0  0  0
 11 50  1  0  0  0  0
 12 13  1  0  0  0  0
 12 51  1  0  0  0  0
 12 52  1  0  0  0  0
 13 14  1  0  0  0  0
 13 53  1  0  0  0  0
 14 15  1  0  0  0  0
 14 23  1  0  0  0  0
 14 54  1  0  0  0  0
 15 16  1  0  0  0  0
 15 55  1  0  0  0  0
 15 56  1  0  0  0  0
 16 17  1  0  0  0  0
 16 57  1  0  0  0  0
 16 58  1  0  0  0  0
 17 18  1  0  0  0  0
 17 22  1  0  0  0  0
 18 19  1  0  0  0  0
 18 20  2  0  0  0  0
 18 21  2  0  0  0  0
 19 59  1  0  0  0  0
 19 60  1  0  0  0  0
 22 23  1  0  0  0  0
 22 61  1  0  0  0  0
 22 62  1  0  0  0  0
 23 63  1  0  0  0  0
 23 64  1  0  0  0  0
 24 25  1  0  0  0  0
 24 39  2  0  0  0  0
 25 26  2  0  0  0  0
 25 65  1  0  0  0  0
 26 27  1  0  0  0  0
 26 66  1  0  0  0  0
 27 28  1  0  0  0  0
 27 38  2  0  0  0  0
 28 29  2  0  0  0  0
 29 30  1  0  0  0  0
 29 67  1  0  0  0  0
 30 31  1  0  0  0  0
 30 37  2  0  0  0  0
 31 32  1  0  0  0  0
 31 36  2  0  0  0  0
 32 33  2  0  0  0  0
 32 68  1  0  0  0  0
 33 34  1  0  0  0  0
 34 35  1  0  0  0  0
 34 36  1  0  0  0  0
 35 69  1  0  0  0  0
 35 70  1  0  0  0  0
 35 71  1  0  0  0  0
 36 72  1  0  0  0  0
 37 38  1  0  0  0  0
 38 39  1  0  0  0  0
 39 73  1  0  0  0  0
 40 74  1  0  0  0  0
M  END
$$$$
