CHEMBL3690386
 OpenBabel04072215373D

 47 50  0  0  0  0  0  0  0  0999 V2000
    1.0296    0.3439   -0.0624 C   0  0  0  0  0  0  0  0  0  0  0  0
    2.5133    0.1724   -0.0781 C   0  0  0  0  0  0  0  0  0  0  0  0
    3.2472    0.3453   -1.2388 C   0  0  0  0  0  0  0  0  0  0  0  0
    4.6322    0.2308   -1.1810 C   0  0  0  0  0  0  0  0  0  0  0  0
    5.2311   -0.0608    0.0395 C   0  0  0  0  0  0  0  0  0  0  0  0
    6.7007   -0.1060    0.2214 C   0  0  0  0  0  0  0  0  0  0  0  0
    7.3163    0.2820    1.4986 C   0  0  0  0  0  0  0  0  0  0  0  0
    8.6502    0.2745    1.6338 C   0  0  0  0  0  0  0  0  0  0  0  0
    9.4476   -0.1331    0.5661 N   0  0  0  0  0  0  0  0  0  0  0  0
   10.8220   -0.2771    0.4645 C   0  0  0  0  0  0  0  0  0  0  0  0
   11.7926   -0.1392    1.5481 C   0  0  0  0  0  0  0  0  0  0  0  0
   13.0422    0.4222    1.3047 C   0  0  0  0  0  0  0  0  0  0  0  0
   14.0214    0.5204    2.2262 N   0  0  0  0  0  0  0  0  0  0  0  0
   13.7449    0.0415    3.4644 C   0  0  0  0  0  0  0  0  0  0  0  0
   12.5272   -0.5212    3.8404 C   0  0  0  0  0  0  0  0  0  0  0  0
   12.2326   -1.0104    5.1379 N   0  0  0  0  0  0  0  0  0  0  0  0
   13.1045   -1.0210    6.1978 C   0  0  0  0  0  0  0  0  0  0  0  0
   14.2456   -0.5707    6.2022 O   0  0  0  0  0  0  0  0  0  0  0  0
   12.6081   -1.6684    7.3035 N   0  0  0  0  0  0  0  0  0  0  0  0
   13.4639   -1.7552    8.4950 C   0  0  0  0  0  0  0  0  0  0  0  0
   13.5342   -0.5032    9.3837 C   0  0  0  0  0  0  0  0  0  0  0  0
   12.6730    0.4602    8.9851 F   0  0  0  0  0  0  0  0  0  0  0  0
   13.1957   -0.8274   10.6578 F   0  0  0  0  0  0  0  0  0  0  0  0
   14.7736    0.0285    9.4244 F   0  0  0  0  0  0  0  0  0  0  0  0
   11.5494   -0.6192    2.8470 C   0  0  0  0  0  0  0  0  0  0  0  0
   11.0297   -0.5799   -0.8736 C   0  0  0  0  0  0  0  0  0  0  0  0
    9.8536   -0.7221   -1.5568 N   0  0  0  0  0  0  0  0  0  0  0  0
    8.9151   -0.4836   -0.6697 C   0  0  0  0  0  0  0  0  0  0  0  0
    7.4993   -0.4948   -0.8019 C   0  0  0  0  0  0  0  0  0  0  0  0
    4.4819   -0.2244    1.1519 N   0  0  0  0  0  0  0  0  0  0  0  0
    3.1173   -0.1077    1.0956 N   0  0  0  0  0  0  0  0  0  0  0  0
    0.6210    0.3941   -1.0763 H   0  0  0  0  0  0  0  0  0  0  0  0
    0.7708    1.2699    0.4600 H   0  0  0  0  0  0  0  0  0  0  0  0
    0.5587   -0.4991    0.4515 H   0  0  0  0  0  0  0  0  0  0  0  0
    2.7627    0.5843   -2.1795 H   0  0  0  0  0  0  0  0  0  0  0  0
    5.2149    0.3992   -2.0752 H   0  0  0  0  0  0  0  0  0  0  0  0
    6.6736    0.5852    2.3209 H   0  0  0  0  0  0  0  0  0  0  0  0
    9.1317    0.5881    2.5490 H   0  0  0  0  0  0  0  0  0  0  0  0
   13.3090    0.8201    0.3290 H   0  0  0  0  0  0  0  0  0  0  0  0
   14.5846    0.1317    4.1441 H   0  0  0  0  0  0  0  0  0  0  0  0
   11.3153   -1.4064    5.2863 H   0  0  0  0  0  0  0  0  0  0  0  0
   11.6084   -1.7053    7.4339 H   0  0  0  0  0  0  0  0  0  0  0  0
   14.4797   -2.0075    8.1667 H   0  0  0  0  0  0  0  0  0  0  0  0
   13.0974   -2.6050    9.0769 H   0  0  0  0  0  0  0  0  0  0  0  0
   10.6021   -1.0989    3.0766 H   0  0  0  0  0  0  0  0  0  0  0  0
   11.9771   -0.7397   -1.3749 H   0  0  0  0  0  0  0  0  0  0  0  0
    7.1155   -0.8171   -1.7630 H   0  0  0  0  0  0  0  0  0  0  0  0
  1  2  1  0  0  0  0
  1 32  1  0  0  0  0
  1 33  1  0  0  0  0
  1 34  1  0  0  0  0
  2  3  1  0  0  0  0
  2 31  2  0  0  0  0
  3  4  2  0  0  0  0
  3 35  1  0  0  0  0
  4  5  1  0  0  0  0
  4 36  1  0  0  0  0
  5  6  1  0  0  0  0
  5 30  2  0  0  0  0
  6  7  1  0  0  0  0
  6 29  2  0  0  0  0
  7  8  2  0  0  0  0
  7 37  1  0  0  0  0
  8  9  1  0  0  0  0
  8 38  1  0  0  0  0
  9 10  1  0  0  0  0
  9 28  1  0  0  0  0
 10 11  1  0  0  0  0
 10 26  2  0  0  0  0
 11 12  1  0  0  0  0
 11 25  2  0  0  0  0
 12 13  2  0  0  0  0
 12 39  1  0  0  0  0
 13 14  1  0  0  0  0
 14 15  2  0  0  0  0
 14 40  1  0  0  0  0
 15 16  1  0  0  0  0
 15 25  1  0  0  0  0
 16 17  1  0  0  0  0
 16 41  1  0  0  0  0
 17 18  2  0  0  0  0
 17 19  1  0  0  0  0
 19 20  1  0  0  0  0
 19 42  1  0  0  0  0
 20 21  1  0  0  0  0
 20 43  1  0  0  0  0
 20 44  1  0  0  0  0
 21 22  1  0  0  0  0
 21 23  1  0  0  0  0
 21 24  1  0  0  0  0
 25 45  1  0  0  0  0
 26 27  1  0  0  0  0
 26 46  1  0  0  0  0
 27 28  2  0  0  0  0
 28 29  1  0  0  0  0
 29 47  1  0  0  0  0
 30 31  1  0  0  0  0
M  END
$$$$
