CHEMBL3690396
 OpenBabel04072215373D

 36 38  0  0  0  0  0  0  0  0999 V2000
    2.7744   -3.1017    1.2916 O   0  0  0  0  0  0  0  0  0  0  0  0
    2.3625   -1.9855    1.0166 C   0  0  0  0  0  0  0  0  0  0  0  0
    1.0173   -1.7096    0.8901 N   0  0  0  0  0  0  0  0  0  0  0  0
    0.0565   -2.8148    0.9674 C   0  0  0  0  0  0  0  0  0  0  0  0
   -0.1450   -3.5997   -0.3385 C   0  0  0  0  0  0  0  0  0  0  0  0
    0.5858   -3.0857   -1.3530 F   0  0  0  0  0  0  0  0  0  0  0  0
    0.1648   -4.9013   -0.2084 F   0  0  0  0  0  0  0  0  0  0  0  0
   -1.4485   -3.5268   -0.7223 F   0  0  0  0  0  0  0  0  0  0  0  0
    3.1219   -0.8603    0.8073 N   0  0  0  0  0  0  0  0  0  0  0  0
    4.5279   -0.7784    0.7855 C   0  0  0  0  0  0  0  0  0  0  0  0
    5.4000   -1.8319    1.0339 C   0  0  0  0  0  0  0  0  0  0  0  0
    6.7520   -1.7334    0.9424 N   0  0  0  0  0  0  0  0  0  0  0  0
    7.2599   -0.5282    0.5935 C   0  0  0  0  0  0  0  0  0  0  0  0
    6.4920    0.6085    0.3780 C   0  0  0  0  0  0  0  0  0  0  0  0
    7.0467    1.9328    0.0891 C   0  0  0  0  0  0  0  0  0  0  0  0
    6.5622    2.9040   -0.7757 C   0  0  0  0  0  0  0  0  0  0  0  0
    7.1559    4.1179   -0.5750 N   0  0  0  0  0  0  0  0  0  0  0  0
    8.0079    3.9225    0.4054 C   0  0  0  0  0  0  0  0  0  0  0  0
    8.8084    4.8494    1.1323 C   0  0  0  0  0  0  0  0  0  0  0  0
    9.6375    4.4038    2.0936 C   0  0  0  0  0  0  0  0  0  0  0  0
   10.5355    5.5071    3.0658 Cl  0  0  0  0  0  0  0  0  0  0  0  0
    9.7722    2.9846    2.3773 C   0  0  0  0  0  0  0  0  0  0  0  0
    8.9731    2.1120    1.7392 C   0  0  0  0  0  0  0  0  0  0  0  0
    8.0641    2.5781    0.7834 N   0  0  0  0  0  0  0  0  0  0  0  0
    5.1002    0.4569    0.4704 C   0  0  0  0  0  0  0  0  0  0  0  0
    0.7771   -0.9625    0.2539 H   0  0  0  0  0  0  0  0  0  0  0  0
   -0.8937   -2.3684    1.2785 H   0  0  0  0  0  0  0  0  0  0  0  0
    0.3699   -3.5027    1.7604 H   0  0  0  0  0  0  0  0  0  0  0  0
    2.6127    0.0023    0.6505 H   0  0  0  0  0  0  0  0  0  0  0  0
    5.0546   -2.8187    1.3255 H   0  0  0  0  0  0  0  0  0  0  0  0
    8.3403   -0.5221    0.4883 H   0  0  0  0  0  0  0  0  0  0  0  0
    5.7570    2.7996   -1.4930 H   0  0  0  0  0  0  0  0  0  0  0  0
    8.6876    5.9052    0.9192 H   0  0  0  0  0  0  0  0  0  0  0  0
   10.4965    2.6540    3.1144 H   0  0  0  0  0  0  0  0  0  0  0  0
    9.0170    1.0523    1.9444 H   0  0  0  0  0  0  0  0  0  0  0  0
    4.4588    1.3179    0.2998 H   0  0  0  0  0  0  0  0  0  0  0  0
  1  2  2  0  0  0  0
  2  3  1  0  0  0  0
  2  9  1  0  0  0  0
  3  4  1  0  0  0  0
  3 26  1  0  0  0  0
  4  5  1  0  0  0  0
  4 27  1  0  0  0  0
  4 28  1  0  0  0  0
  5  6  1  0  0  0  0
  5  7  1  0  0  0  0
  5  8  1  0  0  0  0
  9 10  1  0  0  0  0
  9 29  1  0  0  0  0
 10 11  1  0  0  0  0
 10 25  2  0  0  0  0
 11 12  2  0  0  0  0
 11 30  1  0  0  0  0
 12 13  1  0  0  0  0
 13 14  2  0  0  0  0
 13 31  1  0  0  0  0
 14 15  1  0  0  0  0
 14 25  1  0  0  0  0
 15 16  2  0  0  0  0
 15 24  1  0  0  0  0
 16 17  1  0  0  0  0
 16 32  1  0  0  0  0
 17 18  2  0  0  0  0
 18 19  1  0  0  0  0
 18 24  1  0  0  0  0
 19 20  2  0  0  0  0
 19 33  1  0  0  0  0
 20 21  1  0  0  0  0
 20 22  1  0  0  0  0
 22 23  2  0  0  0  0
 22 34  1  0  0  0  0
 23 24  1  0  0  0  0
 23 35  1  0  0  0  0
 25 36  1  0  0  0  0
M  END
$$$$
