CHEMBL379320
 OpenBabel04072215373D

 40 42  0  0  0  0  0  0  0  0999 V2000
    5.6667   -2.0285    3.3539 C   0  0  0  0  0  0  0  0  0  0  0  0
    5.7416   -1.4720    2.0279 N   0  0  0  0  0  0  0  0  0  0  0  0
    6.0447   -0.1399    1.8374 C   0  0  0  0  0  0  0  0  0  0  0  0
    6.2770    0.6371    2.7580 O   0  0  0  0  0  0  0  0  0  0  0  0
    6.1005    0.3365    0.4249 C   0  0  0  0  0  0  0  0  0  0  0  0
    5.3488   -0.2690   -0.5878 C   0  0  0  0  0  0  0  0  0  0  0  0
    5.4112    0.2224   -1.8927 C   0  0  0  0  0  0  0  0  0  0  0  0
    6.2083    1.3311   -2.1887 C   0  0  0  0  0  0  0  0  0  0  0  0
    6.9466    1.9721   -1.1818 C   0  0  0  0  0  0  0  0  0  0  0  0
    7.7698    3.1970   -1.4919 C   0  0  0  0  0  0  0  0  0  0  0  0
    9.4673    2.7745   -1.9859 S   0  0  0  0  0  0  0  0  0  0  0  0
   10.1806    4.3574   -2.2506 C   0  0  0  0  0  0  0  0  0  0  0  0
    9.8817    5.5513   -1.6351 C   0  0  0  0  0  0  0  0  0  0  0  0
   10.6006    6.6436   -2.0641 N   0  0  0  0  0  0  0  0  0  0  0  0
   11.4614    6.3061   -3.0000 C   0  0  0  0  0  0  0  0  0  0  0  0
   12.2811    7.1473   -3.6720 N   0  0  0  0  0  0  0  0  0  0  0  0
   12.0745    8.5195   -3.8502 C   0  0  0  0  0  0  0  0  0  0  0  0
   11.3679    9.3154   -2.9513 C   0  0  0  0  0  0  0  0  0  0  0  0
   11.1006   10.6468   -3.2588 C   0  0  0  0  0  0  0  0  0  0  0  0
   11.5800   11.1724   -4.4463 C   0  0  0  0  0  0  0  0  0  0  0  0
   12.3284   10.3425   -5.2611 C   0  0  0  0  0  0  0  0  0  0  0  0
   12.5863    9.0408   -4.9887 N   0  0  0  0  0  0  0  0  0  0  0  0
   11.4625    4.6138   -3.3649 S   0  0  0  0  0  0  0  0  0  0  0  0
    6.8923    1.4576    0.1250 C   0  0  0  0  0  0  0  0  0  0  0  0
    5.4858   -3.1032    3.2749 H   0  0  0  0  0  0  0  0  0  0  0  0
    4.8442   -1.5528    3.8952 H   0  0  0  0  0  0  0  0  0  0  0  0
    6.6055   -1.8445    3.8843 H   0  0  0  0  0  0  0  0  0  0  0  0
    5.7389   -2.1050    1.2407 H   0  0  0  0  0  0  0  0  0  0  0  0
    4.6846   -1.1016   -0.3753 H   0  0  0  0  0  0  0  0  0  0  0  0
    4.8259   -0.2491   -2.6786 H   0  0  0  0  0  0  0  0  0  0  0  0
    6.2378    1.7021   -3.2122 H   0  0  0  0  0  0  0  0  0  0  0  0
    7.7834    3.8433   -0.6078 H   0  0  0  0  0  0  0  0  0  0  0  0
    7.2877    3.7686   -2.2942 H   0  0  0  0  0  0  0  0  0  0  0  0
    9.1398    5.7044   -0.8622 H   0  0  0  0  0  0  0  0  0  0  0  0
   12.7960    6.7890   -4.4673 H   0  0  0  0  0  0  0  0  0  0  0  0
   11.0025    8.9164   -2.0118 H   0  0  0  0  0  0  0  0  0  0  0  0
   10.5140   11.2531   -2.5757 H   0  0  0  0  0  0  0  0  0  0  0  0
   11.3782   12.1995   -4.7254 H   0  0  0  0  0  0  0  0  0  0  0  0
   12.7464   10.7112   -6.1934 H   0  0  0  0  0  0  0  0  0  0  0  0
    7.4603    1.9333    0.9219 H   0  0  0  0  0  0  0  0  0  0  0  0
  1  2  1  0  0  0  0
  1 25  1  0  0  0  0
  1 26  1  0  0  0  0
  1 27  1  0  0  0  0
  2  3  1  0  0  0  0
  2 28  1  0  0  0  0
  3  4  2  0  0  0  0
  3  5  1  0  0  0  0
  5  6  1  0  0  0  0
  5 24  2  0  0  0  0
  6  7  2  0  0  0  0
  6 29  1  0  0  0  0
  7  8  1  0  0  0  0
  7 30  1  0  0  0  0
  8  9  2  0  0  0  0
  8 31  1  0  0  0  0
  9 10  1  0  0  0  0
  9 24  1  0  0  0  0
 10 11  1  0  0  0  0
 10 32  1  0  0  0  0
 10 33  1  0  0  0  0
 11 12  1  0  0  0  0
 12 13  2  0  0  0  0
 12 23  1  0  0  0  0
 13 14  1  0  0  0  0
 13 34  1  0  0  0  0
 14 15  2  0  0  0  0
 15 16  1  0  0  0  0
 15 23  1  0  0  0  0
 16 17  1  0  0  0  0
 16 35  1  0  0  0  0
 17 18  1  0  0  0  0
 17 22  2  0  0  0  0
 18 19  2  0  0  0  0
 18 36  1  0  0  0  0
 19 20  1  0  0  0  0
 19 37  1  0  0  0  0
 20 21  2  0  0  0  0
 20 38  1  0  0  0  0
 21 22  1  0  0  0  0
 21 39  1  0  0  0  0
 24 40  1  0  0  0  0
M  END
$$$$
