CHEMBL4460817
 OpenBabel04072215383D

 45 48  0  0  0  0  0  0  0  0999 V2000
    1.0615    0.6620    0.1927 O   0  0  0  0  0  0  0  0  0  0  0  0
    2.1771    0.1941   -0.0192 C   0  0  0  0  0  0  0  0  0  0  0  0
    2.7137   -0.1402   -1.2559 N   0  0  0  0  0  0  0  0  0  0  0  0
    2.0489    0.0378   -2.4931 C   0  0  0  0  0  0  0  0  0  0  0  0
    0.9303    0.8569   -2.6228 C   0  0  0  0  0  0  0  0  0  0  0  0
    0.2564    0.9627   -3.8399 C   0  0  0  0  0  0  0  0  0  0  0  0
    0.7173    0.3083   -4.9852 C   0  0  0  0  0  0  0  0  0  0  0  0
    0.0649    0.4657   -6.2368 N   0  0  0  0  0  0  0  0  0  0  0  0
   -0.6606    1.6279   -6.6353 C   0  0  0  0  0  0  0  0  0  0  0  0
   -0.1783    2.8875   -6.2338 C   0  0  0  0  0  0  0  0  0  0  0  0
   -0.9021    4.0372   -6.4927 C   0  0  0  0  0  0  0  0  0  0  0  0
   -2.0664    3.9262   -7.2534 C   0  0  0  0  0  0  0  0  0  0  0  0
   -2.8815    5.1111   -7.3898 N   0  3  0  0  0  0  0  0  0  0  0  0
   -2.3567    6.0977   -7.9244 O   0  0  0  0  0  0  0  0  0  0  0  0
   -4.0097    5.0888   -6.8722 O   0  5  0  0  0  0  0  0  0  0  0  0
   -2.5097    2.7386   -7.8315 C   0  0  0  0  0  0  0  0  0  0  0  0
   -3.5476    2.7286   -8.6956 N   0  0  0  0  0  0  0  0  0  0  0  0
   -3.9472    1.5566   -9.1939 C   0  0  0  0  0  0  0  0  0  0  0  0
   -3.4459    0.3675   -8.8666 N   0  0  0  0  0  0  0  0  0  0  0  0
   -2.4079    0.4173   -8.0180 C   0  0  0  0  0  0  0  0  0  0  0  0
   -1.9844   -0.8287   -7.6664 O   0  0  0  0  0  0  0  0  0  0  0  0
   -1.8199    1.5656   -7.4808 C   0  0  0  0  0  0  0  0  0  0  0  0
    1.8362   -0.5215   -4.8599 C   0  0  0  0  0  0  0  0  0  0  0  0
    2.5092   -0.6400   -3.6280 C   0  0  0  0  0  0  0  0  0  0  0  0
    3.0037   -0.1081    1.1745 C   0  0  0  0  0  0  0  0  0  0  0  0
    2.3349   -0.5291    2.3347 C   0  0  0  0  0  0  0  0  0  0  0  0
    3.0425   -0.7658    3.5104 C   0  0  0  0  0  0  0  0  0  0  0  0
    4.4185   -0.5683    3.5231 C   0  0  0  0  0  0  0  0  0  0  0  0
    5.1015   -0.7793    4.6548 F   0  0  0  0  0  0  0  0  0  0  0  0
    5.0951   -0.1397    2.3826 C   0  0  0  0  0  0  0  0  0  0  0  0
    4.3893    0.0943    1.1977 C   0  0  0  0  0  0  0  0  0  0  0  0
    3.5609   -0.6931   -1.2693 H   0  0  0  0  0  0  0  0  0  0  0  0
    0.5485    1.4478   -1.7972 H   0  0  0  0  0  0  0  0  0  0  0  0
   -0.6311    1.5858   -3.8692 H   0  0  0  0  0  0  0  0  0  0  0  0
   -0.4181   -0.3956   -6.5109 H   0  0  0  0  0  0  0  0  0  0  0  0
    0.7489    2.9655   -5.6692 H   0  0  0  0  0  0  0  0  0  0  0  0
   -0.5686    4.9921   -6.0951 H   0  0  0  0  0  0  0  0  0  0  0  0
   -4.7474    1.5822   -9.9287 H   0  0  0  0  0  0  0  0  0  0  0  0
   -2.6607   -1.3656   -8.1210 H   0  0  0  0  0  0  0  0  0  0  0  0
    2.2116   -1.0584   -5.7271 H   0  0  0  0  0  0  0  0  0  0  0  0
    3.3849   -1.2838   -3.5741 H   0  0  0  0  0  0  0  0  0  0  0  0
    1.2523   -0.6582    2.3241 H   0  0  0  0  0  0  0  0  0  0  0  0
    2.5305   -1.0843    4.4129 H   0  0  0  0  0  0  0  0  0  0  0  0
    6.1667    0.0286    2.4345 H   0  0  0  0  0  0  0  0  0  0  0  0
    4.9183    0.4737    0.3284 H   0  0  0  0  0  0  0  0  0  0  0  0
  1  2  2  0  0  0  0
  2  3  1  0  0  0  0
  2 25  1  0  0  0  0
  3  4  1  0  0  0  0
  3 32  1  0  0  0  0
  4  5  1  0  0  0  0
  4 24  2  0  0  0  0
  5  6  2  0  0  0  0
  5 33  1  0  0  0  0
  6  7  1  0  0  0  0
  6 34  1  0  0  0  0
  7  8  1  0  0  0  0
  7 23  2  0  0  0  0
  8  9  1  0  0  0  0
  8 35  1  0  0  0  0
  9 10  1  0  0  0  0
  9 22  2  0  0  0  0
 10 11  2  0  0  0  0
 10 36  1  0  0  0  0
 11 12  1  0  0  0  0
 11 37  1  0  0  0  0
 12 13  1  0  0  0  0
 12 16  2  0  0  0  0
 13 14  2  0  0  0  0
 13 15  1  0  0  0  0
 16 17  1  0  0  0  0
 16 22  1  0  0  0  0
 17 18  2  0  0  0  0
 18 19  1  0  0  0  0
 18 38  1  0  0  0  0
 19 20  2  0  0  0  0
 20 21  1  0  0  0  0
 20 22  1  0  0  0  0
 21 39  1  0  0  0  0
 23 24  1  0  0  0  0
 23 40  1  0  0  0  0
 24 41  1  0  0  0  0
 25 26  1  0  0  0  0
 25 31  2  0  0  0  0
 26 27  2  0  0  0  0
 26 42  1  0  0  0  0
 27 28  1  0  0  0  0
 27 43  1  0  0  0  0
 28 29  1  0  0  0  0
 28 30  2  0  0  0  0
 30 31  1  0  0  0  0
 30 44  1  0  0  0  0
 31 45  1  0  0  0  0
M  CHG  2  13   1  15  -1
M  END
$$$$
