CHEMBL3893548
 OpenBabel04072215373D

 55 58  0  0  0  0  0  0  0  0999 V2000
    5.2584   -1.1616   -2.1533 C   0  0  0  0  0  0  0  0  0  0  0  0
    4.1359   -0.8725   -1.1689 C   0  0  0  0  0  0  0  0  0  0  0  0
    4.1135    0.4786   -0.9630 F   0  0  0  0  0  0  0  0  0  0  0  0
    2.9536   -1.1597   -1.7877 F   0  0  0  0  0  0  0  0  0  0  0  0
    4.3010   -1.6349    0.1296 C   0  0  0  0  0  0  0  0  0  0  0  0
    5.1027   -1.0952    1.1435 C   0  0  0  0  0  0  0  0  0  0  0  0
    5.2238   -1.7515    2.3599 C   0  0  0  0  0  0  0  0  0  0  0  0
    4.5648   -2.9594    2.5779 C   0  0  0  0  0  0  0  0  0  0  0  0
    4.6423   -3.4414    3.8202 F   0  0  0  0  0  0  0  0  0  0  0  0
    3.7858   -3.5637    1.5742 C   0  0  0  0  0  0  0  0  0  0  0  0
    3.1189   -4.8223    1.6924 N   0  0  0  0  0  0  0  0  0  0  0  0
    3.3252   -5.7741    2.6766 C   0  0  0  0  0  0  0  0  0  0  0  0
    4.1153   -5.6833    3.6080 O   0  0  0  0  0  0  0  0  0  0  0  0
    2.5795   -6.9309    2.4598 N   0  0  0  0  0  0  0  0  0  0  0  0
    2.6894   -8.0228    3.3670 C   0  0  0  0  0  0  0  0  0  0  0  0
    2.6011   -7.8401    4.7527 C   0  0  0  0  0  0  0  0  0  0  0  0
    2.8131   -8.9143    5.6314 C   0  0  0  0  0  0  0  0  0  0  0  0
    3.1332  -10.1800    5.1337 C   0  0  0  0  0  0  0  0  0  0  0  0
    3.3455  -11.1750    6.0690 O   0  0  0  0  0  0  0  0  0  0  0  0
    4.3482  -12.1091    5.8823 C   0  0  0  0  0  0  0  0  0  0  0  0
    5.4978  -11.8738    5.1380 C   0  0  0  0  0  0  0  0  0  0  0  0
    6.3888  -12.9137    4.9928 C   0  0  0  0  0  0  0  0  0  0  0  0
    6.2338  -14.1131    5.5808 N   0  0  0  0  0  0  0  0  0  0  0  0
    5.1634  -14.3301    6.3634 C   0  0  0  0  0  0  0  0  0  0  0  0
    5.0348  -15.5752    7.0178 N   0  0  0  0  0  0  0  0  0  0  0  0
    5.9260  -16.6185    6.8361 C   0  0  0  0  0  0  0  0  0  0  0  0
    6.8601  -16.6572    6.0453 O   0  0  0  0  0  0  0  0  0  0  0  0
    5.7603  -17.8372    7.6860 C   0  0  0  0  0  0  0  0  0  0  0  0
    4.6052  -18.2275    8.5652 C   0  0  0  0  0  0  0  0  0  0  0  0
    5.8682  -17.7023    9.1873 C   0  0  0  0  0  0  0  0  0  0  0  0
    4.1945  -13.3427    6.5415 C   0  0  0  0  0  0  0  0  0  0  0  0
    3.1395  -10.3649    3.7469 C   0  0  0  0  0  0  0  0  0  0  0  0
    3.3881  -11.5705    3.2153 F   0  0  0  0  0  0  0  0  0  0  0  0
    2.9186   -9.3007    2.8653 C   0  0  0  0  0  0  0  0  0  0  0  0
    3.6541   -2.8739    0.3517 C   0  0  0  0  0  0  0  0  0  0  0  0
    5.1030   -0.5852   -3.0721 H   0  0  0  0  0  0  0  0  0  0  0  0
    5.2875   -2.2205   -2.4274 H   0  0  0  0  0  0  0  0  0  0  0  0
    6.2342   -0.8729   -1.7485 H   0  0  0  0  0  0  0  0  0  0  0  0
    5.6107   -0.1420    1.0018 H   0  0  0  0  0  0  0  0  0  0  0  0
    5.8136   -1.3283    3.1673 H   0  0  0  0  0  0  0  0  0  0  0  0
    2.4817   -5.0661    0.9509 H   0  0  0  0  0  0  0  0  0  0  0  0
    2.4758   -7.1756    1.4873 H   0  0  0  0  0  0  0  0  0  0  0  0
    2.3788   -6.8566    5.1650 H   0  0  0  0  0  0  0  0  0  0  0  0
    2.7476   -8.7473    6.7038 H   0  0  0  0  0  0  0  0  0  0  0  0
    5.7037  -10.9274    4.6549 H   0  0  0  0  0  0  0  0  0  0  0  0
    7.2805  -12.8165    4.3806 H   0  0  0  0  0  0  0  0  0  0  0  0
    4.2713  -15.6931    7.6630 H   0  0  0  0  0  0  0  0  0  0  0  0
    6.2921  -18.6840    7.2497 H   0  0  0  0  0  0  0  0  0  0  0  0
    4.4128  -19.2936    8.6789 H   0  0  0  0  0  0  0  0  0  0  0  0
    3.7137  -17.6215    8.6030 H   0  0  0  0  0  0  0  0  0  0  0  0
    6.5431  -18.3894    9.6882 H   0  0  0  0  0  0  0  0  0  0  0  0
    5.8415  -16.7144    9.6328 H   0  0  0  0  0  0  0  0  0  0  0  0
    3.3300  -13.5085    7.1709 H   0  0  0  0  0  0  0  0  0  0  0  0
    2.9994   -9.4870    1.8001 H   0  0  0  0  0  0  0  0  0  0  0  0
    3.0411   -3.2878   -0.4475 H   0  0  0  0  0  0  0  0  0  0  0  0
  1  2  1  0  0  0  0
  1 36  1  0  0  0  0
  1 37  1  0  0  0  0
  1 38  1  0  0  0  0
  2  3  1  0  0  0  0
  2  4  1  0  0  0  0
  2  5  1  0  0  0  0
  5  6  1  0  0  0  0
  5 35  2  0  0  0  0
  6  7  2  0  0  0  0
  6 39  1  0  0  0  0
  7  8  1  0  0  0  0
  7 40  1  0  0  0  0
  8  9  1  0  0  0  0
  8 10  2  0  0  0  0
 10 11  1  0  0  0  0
 10 35  1  0  0  0  0
 11 12  1  0  0  0  0
 11 41  1  0  0  0  0
 12 13  2  0  0  0  0
 12 14  1  0  0  0  0
 14 15  1  0  0  0  0
 14 42  1  0  0  0  0
 15 16  1  0  0  0  0
 15 34  2  0  0  0  0
 16 17  2  0  0  0  0
 16 43  1  0  0  0  0
 17 18  1  0  0  0  0
 17 44  1  0  0  0  0
 18 19  1  0  0  0  0
 18 32  2  0  0  0  0
 19 20  1  0  0  0  0
 20 21  1  0  0  0  0
 20 31  2  0  0  0  0
 21 22  2  0  0  0  0
 21 45  1  0  0  0  0
 22 23  1  0  0  0  0
 22 46  1  0  0  0  0
 23 24  2  0  0  0  0
 24 25  1  0  0  0  0
 24 31  1  0  0  0  0
 25 26  1  0  0  0  0
 25 47  1  0  0  0  0
 26 27  2  0  0  0  0
 26 28  1  0  0  0  0
 28 29  1  0  0  0  0
 28 30  1  0  0  0  0
 28 48  1  0  0  0  0
 29 30  1  0  0  0  0
 29 49  1  0  0  0  0
 29 50  1  0  0  0  0
 30 51  1  0  0  0  0
 30 52  1  0  0  0  0
 31 53  1  0  0  0  0
 32 33  1  0  0  0  0
 32 34  1  0  0  0  0
 34 54  1  0  0  0  0
 35 55  1  0  0  0  0
M  END
$$$$
