CHEMBL2113182
 OpenBabel04072215363D

 57 60  0  0  0  0  0  0  0  0999 V2000
    1.1422    0.9750    0.0058 C   0  0  0  0  0  0  0  0  0  0  0  0
    2.3915    0.3273   -0.1329 O   0  0  0  0  0  0  0  0  0  0  0  0
    2.8637    0.2823   -1.4844 C   0  0  0  0  0  0  0  0  0  0  0  0
    4.1774   -0.4835   -1.4145 C   0  0  0  0  0  0  0  0  0  0  0  0
    4.8439   -0.6227   -2.6515 O   0  0  0  0  0  0  0  0  0  0  0  0
    6.2052   -0.8161   -2.6230 C   0  0  0  0  0  0  0  0  0  0  0  0
    6.7893   -0.3609   -3.8309 C   0  0  0  0  0  0  0  0  0  0  0  0
    8.1544   -0.3869   -4.0914 C   0  0  0  0  0  0  0  0  0  0  0  0
    8.6307    0.1120   -5.2468 N   0  0  0  0  0  0  0  0  0  0  0  0
    9.9579    0.0646   -5.4265 C   0  0  0  0  0  0  0  0  0  0  0  0
   10.8472   -0.4594   -4.5802 N   0  0  0  0  0  0  0  0  0  0  0  0
   10.3633   -0.9694   -3.4314 C   0  0  0  0  0  0  0  0  0  0  0  0
   11.2737   -1.5726   -2.5173 N   0  0  0  0  0  0  0  0  0  0  0  0
   12.6508   -1.4425   -2.6658 C   0  0  0  0  0  0  0  0  0  0  0  0
   13.2909   -0.2850   -2.8644 C   0  0  0  0  0  0  0  0  0  0  0  0
   14.7354   -0.1815   -3.1147 C   0  0  0  0  0  0  0  0  0  0  0  0
   15.2262    0.9250   -3.3085 O   0  0  0  0  0  0  0  0  0  0  0  0
   15.5260   -1.4491   -3.1394 C   0  0  0  0  0  0  0  0  0  0  0  0
   16.8779   -1.4988   -3.4460 O   0  0  0  0  0  0  0  0  0  0  0  0
   17.6379   -0.3071   -3.2401 C   0  0  0  0  0  0  0  0  0  0  0  0
   19.0889   -0.7048   -3.0952 C   0  0  0  0  0  0  0  0  0  0  0  0
   19.7692   -1.3292   -4.1589 C   0  0  0  0  0  0  0  0  0  0  0  0
   21.1063   -1.6951   -4.0124 C   0  0  0  0  0  0  0  0  0  0  0  0
   21.7655   -1.4469   -2.8204 C   0  0  0  0  0  0  0  0  0  0  0  0
   23.0476   -1.8080   -2.6812 F   0  0  0  0  0  0  0  0  0  0  0  0
   21.1139   -0.8294   -1.7581 C   0  0  0  0  0  0  0  0  0  0  0  0
   19.7742   -0.4587   -1.8971 C   0  0  0  0  0  0  0  0  0  0  0  0
   14.9030   -2.6063   -2.8785 C   0  0  0  0  0  0  0  0  0  0  0  0
   13.4632   -2.6962   -2.5811 C   0  0  0  0  0  0  0  0  0  0  0  0
   12.9398   -3.7684   -2.2897 O   0  0  0  0  0  0  0  0  0  0  0  0
    8.9934   -0.9225   -3.1201 C   0  0  0  0  0  0  0  0  0  0  0  0
    8.4345   -1.3544   -1.8993 C   0  0  0  0  0  0  0  0  0  0  0  0
    7.0519   -1.3252   -1.6314 C   0  0  0  0  0  0  0  0  0  0  0  0
    6.8505   -1.7509   -0.3533 O   0  0  0  0  0  0  0  0  0  0  0  0
    5.7145   -2.4820    0.0600 C   0  0  0  0  0  0  0  0  0  0  0  0
    0.8786    0.9649    1.0676 H   0  0  0  0  0  0  0  0  0  0  0  0
    0.3693    0.4381   -0.5500 H   0  0  0  0  0  0  0  0  0  0  0  0
    1.2114    2.0130   -0.3280 H   0  0  0  0  0  0  0  0  0  0  0  0
    3.0093    1.2910   -1.8826 H   0  0  0  0  0  0  0  0  0  0  0  0
    2.1440   -0.2477   -2.1204 H   0  0  0  0  0  0  0  0  0  0  0  0
    3.8777   -1.4778   -1.0858 H   0  0  0  0  0  0  0  0  0  0  0  0
    4.8162    0.0041   -0.6713 H   0  0  0  0  0  0  0  0  0  0  0  0
    6.1390    0.0617   -4.5993 H   0  0  0  0  0  0  0  0  0  0  0  0
   10.3466    0.4883   -6.3448 H   0  0  0  0  0  0  0  0  0  0  0  0
   11.0132   -2.5559   -2.3806 H   0  0  0  0  0  0  0  0  0  0  0  0
   12.7470    0.6527   -2.8964 H   0  0  0  0  0  0  0  0  0  0  0  0
   17.3213    0.2070   -2.3251 H   0  0  0  0  0  0  0  0  0  0  0  0
   17.5335    0.3662   -4.1001 H   0  0  0  0  0  0  0  0  0  0  0  0
   19.2537   -1.5291   -5.0910 H   0  0  0  0  0  0  0  0  0  0  0  0
   21.6382   -2.1837   -4.8307 H   0  0  0  0  0  0  0  0  0  0  0  0
   21.6443   -0.6482   -0.8325 H   0  0  0  0  0  0  0  0  0  0  0  0
   19.2691    0.0191   -1.0628 H   0  0  0  0  0  0  0  0  0  0  0  0
   15.4452   -3.5484   -2.8885 H   0  0  0  0  0  0  0  0  0  0  0  0
    9.0981   -1.7024   -1.1072 H   0  0  0  0  0  0  0  0  0  0  0  0
    6.0319   -3.2517    0.7693 H   0  0  0  0  0  0  0  0  0  0  0  0
    5.1904   -2.9846   -0.7560 H   0  0  0  0  0  0  0  0  0  0  0  0
    5.0679   -1.8090    0.6327 H   0  0  0  0  0  0  0  0  0  0  0  0
  1  2  1  0  0  0  0
  1 36  1  0  0  0  0
  1 37  1  0  0  0  0
  1 38  1  0  0  0  0
  2  3  1  0  0  0  0
  3  4  1  0  0  0  0
  3 39  1  0  0  0  0
  3 40  1  0  0  0  0
  4  5  1  0  0  0  0
  4 41  1  0  0  0  0
  4 42  1  0  0  0  0
  5  6  1  0  0  0  0
  6  7  1  0  0  0  0
  6 33  2  0  0  0  0
  7  8  2  0  0  0  0
  7 43  1  0  0  0  0
  8  9  1  0  0  0  0
  8 31  1  0  0  0  0
  9 10  2  0  0  0  0
 10 11  1  0  0  0  0
 10 44  1  0  0  0  0
 11 12  2  0  0  0  0
 12 13  1  0  0  0  0
 12 31  1  0  0  0  0
 13 14  1  0  0  0  0
 13 45  1  0  0  0  0
 14 15  2  0  0  0  0
 14 29  1  0  0  0  0
 15 16  1  0  0  0  0
 15 46  1  0  0  0  0
 16 17  2  0  0  0  0
 16 18  1  0  0  0  0
 18 19  1  0  0  0  0
 18 28  2  0  0  0  0
 19 20  1  0  0  0  0
 20 21  1  0  0  0  0
 20 47  1  0  0  0  0
 20 48  1  0  0  0  0
 21 22  1  0  0  0  0
 21 27  2  0  0  0  0
 22 23  2  0  0  0  0
 22 49  1  0  0  0  0
 23 24  1  0  0  0  0
 23 50  1  0  0  0  0
 24 25  1  0  0  0  0
 24 26  2  0  0  0  0
 26 27  1  0  0  0  0
 26 51  1  0  0  0  0
 27 52  1  0  0  0  0
 28 29  1  0  0  0  0
 28 53  1  0  0  0  0
 29 30  2  0  0  0  0
 31 32  2  0  0  0  0
 32 33  1  0  0  0  0
 32 54  1  0  0  0  0
 33 34  1  0  0  0  0
 34 35  1  0  0  0  0
 35 55  1  0  0  0  0
 35 56  1  0  0  0  0
 35 57  1  0  0  0  0
M  END
$$$$
