CHEMBL211378
 OpenBabel04072215363D

 43 46  0  0  0  0  0  0  0  0999 V2000
    2.3599   -0.4097    1.5788 C   0  0  0  0  0  0  0  0  0  0  0  0
    0.8611   -0.3223    1.5287 C   0  0  0  0  0  0  0  0  0  0  0  0
    0.2379    0.8595    1.9406 C   0  0  0  0  0  0  0  0  0  0  0  0
   -1.1436    0.9684    1.8975 C   0  0  0  0  0  0  0  0  0  0  0  0
   -1.9144   -0.0995    1.4444 C   0  0  0  0  0  0  0  0  0  0  0  0
   -1.3305   -1.2993    1.0207 C   0  0  0  0  0  0  0  0  0  0  0  0
   -2.0960   -2.4110    0.5486 N   0  0  0  0  0  0  0  0  0  0  0  0
   -3.4815   -2.4210    0.4128 C   0  0  0  0  0  0  0  0  0  0  0  0
   -4.2325   -1.4815    0.6590 O   0  0  0  0  0  0  0  0  0  0  0  0
   -3.9683   -3.6556   -0.0078 N   0  0  0  0  0  0  0  0  0  0  0  0
   -5.3706   -3.8127   -0.1827 C   0  0  0  0  0  0  0  0  0  0  0  0
   -6.1116   -2.9283   -0.9771 C   0  0  0  0  0  0  0  0  0  0  0  0
   -7.5097   -3.0123   -1.0340 C   0  0  0  0  0  0  0  0  0  0  0  0
   -8.1901   -3.9873   -0.2959 C   0  0  0  0  0  0  0  0  0  0  0  0
   -9.6543   -3.9611   -0.1904 C   0  0  0  0  0  0  0  0  0  0  0  0
  -10.4121   -3.5331   -1.2177 N   0  0  0  0  0  0  0  0  0  0  0  0
  -11.7215   -3.5971   -0.7858 O   0  0  0  0  0  0  0  0  0  0  0  0
  -11.7686   -4.0496    0.4938 C   0  0  0  0  0  0  0  0  0  0  0  0
  -12.9077   -4.2116    1.1866 N   0  0  0  0  0  0  0  0  0  0  0  0
  -12.6625   -4.6627    2.4243 C   0  0  0  0  0  0  0  0  0  0  0  0
  -11.4680   -4.9185    2.9819 N   0  0  0  0  0  0  0  0  0  0  0  0
  -10.3503   -4.7226    2.2552 C   0  0  0  0  0  0  0  0  0  0  0  0
   -9.1531   -4.9712    2.9078 N   0  0  0  0  0  0  0  0  0  0  0  0
  -10.4783   -4.2856    0.9319 C   0  0  0  0  0  0  0  0  0  0  0  0
   -7.4270   -4.9385    0.3995 C   0  0  0  0  0  0  0  0  0  0  0  0
   -6.0325   -4.8362    0.4866 C   0  0  0  0  0  0  0  0  0  0  0  0
    0.0714   -1.4003    1.0691 C   0  0  0  0  0  0  0  0  0  0  0  0
    2.7958    0.5147    1.9763 H   0  0  0  0  0  0  0  0  0  0  0  0
    2.7681   -0.5583    0.5747 H   0  0  0  0  0  0  0  0  0  0  0  0
    2.6761   -1.2273    2.2332 H   0  0  0  0  0  0  0  0  0  0  0  0
    0.8217    1.7051    2.2959 H   0  0  0  0  0  0  0  0  0  0  0  0
   -1.6345    1.8855    2.2128 H   0  0  0  0  0  0  0  0  0  0  0  0
   -2.9862    0.0580    1.4342 H   0  0  0  0  0  0  0  0  0  0  0  0
   -1.5879   -3.2047    0.2123 H   0  0  0  0  0  0  0  0  0  0  0  0
   -3.4785   -4.4470    0.3843 H   0  0  0  0  0  0  0  0  0  0  0  0
   -5.6082   -2.1392   -1.5327 H   0  0  0  0  0  0  0  0  0  0  0  0
   -8.0560   -2.2804   -1.6272 H   0  0  0  0  0  0  0  0  0  0  0  0
  -13.5268   -4.8285    3.0530 H   0  0  0  0  0  0  0  0  0  0  0  0
   -9.3000   -5.0747    3.9065 H   0  0  0  0  0  0  0  0  0  0  0  0
   -8.3935   -4.3528    2.6521 H   0  0  0  0  0  0  0  0  0  0  0  0
   -7.9113   -5.7489    0.9373 H   0  0  0  0  0  0  0  0  0  0  0  0
   -5.4995   -5.5117    1.1490 H   0  0  0  0  0  0  0  0  0  0  0  0
    0.5684   -2.3135    0.7513 H   0  0  0  0  0  0  0  0  0  0  0  0
  1  2  1  0  0  0  0
  1 28  1  0  0  0  0
  1 29  1  0  0  0  0
  1 30  1  0  0  0  0
  2  3  1  0  0  0  0
  2 27  2  0  0  0  0
  3  4  2  0  0  0  0
  3 31  1  0  0  0  0
  4  5  1  0  0  0  0
  4 32  1  0  0  0  0
  5  6  2  0  0  0  0
  5 33  1  0  0  0  0
  6  7  1  0  0  0  0
  6 27  1  0  0  0  0
  7  8  1  0  0  0  0
  7 34  1  0  0  0  0
  8  9  2  0  0  0  0
  8 10  1  0  0  0  0
 10 11  1  0  0  0  0
 10 35  1  0  0  0  0
 11 12  1  0  0  0  0
 11 26  2  0  0  0  0
 12 13  2  0  0  0  0
 12 36  1  0  0  0  0
 13 14  1  0  0  0  0
 13 37  1  0  0  0  0
 14 15  1  0  0  0  0
 14 25  2  0  0  0  0
 15 16  2  0  0  0  0
 15 24  1  0  0  0  0
 16 17  1  0  0  0  0
 17 18  1  0  0  0  0
 18 19  1  0  0  0  0
 18 24  2  0  0  0  0
 19 20  2  0  0  0  0
 20 21  1  0  0  0  0
 20 38  1  0  0  0  0
 21 22  2  0  0  0  0
 22 23  1  0  0  0  0
 22 24  1  0  0  0  0
 23 39  1  0  0  0  0
 23 40  1  0  0  0  0
 25 26  1  0  0  0  0
 25 41  1  0  0  0  0
 26 42  1  0  0  0  0
 27 43  1  0  0  0  0
M  END
$$$$
