CHEMBL98633
 OpenBabel04072215383D

 32 34  0  0  0  0  0  0  0  0999 V2000
    1.1331    0.2949   -0.2759 O   0  0  0  0  0  0  0  0  0  0  0  0
    2.3076   -0.0316   -0.1265 C   0  0  0  0  0  0  0  0  0  0  0  0
    2.9578   -1.0890   -0.7242 N   0  0  0  0  0  0  0  0  0  0  0  0
    2.2947   -1.9164   -1.5918 C   0  0  0  0  0  0  0  0  0  0  0  0
    1.1790   -1.6926   -2.2327 N   0  0  0  0  0  0  0  0  0  0  0  0
    0.8573   -2.7945   -2.9916 C   0  0  0  0  0  0  0  0  0  0  0  0
    1.7221   -3.8731   -2.8964 C   0  0  0  0  0  0  0  0  0  0  0  0
    1.6360   -5.1706   -3.5698 C   0  0  0  0  0  0  0  0  0  0  0  0
    1.0573   -5.2406   -4.8479 C   0  0  0  0  0  0  0  0  0  0  0  0
    0.9059   -6.4635   -5.5010 C   0  0  0  0  0  0  0  0  0  0  0  0
    1.3291   -7.6387   -4.8858 C   0  0  0  0  0  0  0  0  0  0  0  0
    1.9038   -7.5873   -3.6156 C   0  0  0  0  0  0  0  0  0  0  0  0
    2.0574   -6.3624   -2.9634 C   0  0  0  0  0  0  0  0  0  0  0  0
    3.0279   -3.4347   -1.8576 S   0  0  0  0  0  0  0  0  0  0  0  0
    3.1060    0.7228    0.8755 C   0  0  0  0  0  0  0  0  0  0  0  0
    2.4403    1.2318    2.0028 C   0  0  0  0  0  0  0  0  0  0  0  0
    3.1449    1.9433    2.9711 C   0  0  0  0  0  0  0  0  0  0  0  0
    4.5114    2.1640    2.8146 C   0  0  0  0  0  0  0  0  0  0  0  0
    5.1747    1.6797    1.6810 C   0  0  0  0  0  0  0  0  0  0  0  0
    4.4742    0.9597    0.7123 C   0  0  0  0  0  0  0  0  0  0  0  0
    3.8631   -1.3894   -0.3989 H   0  0  0  0  0  0  0  0  0  0  0  0
   -0.0336   -2.7630   -3.6044 H   0  0  0  0  0  0  0  0  0  0  0  0
    0.7111   -4.3373   -5.3455 H   0  0  0  0  0  0  0  0  0  0  0  0
    0.4477   -6.4993   -6.4870 H   0  0  0  0  0  0  0  0  0  0  0  0
    1.2053   -8.5915   -5.3905 H   0  0  0  0  0  0  0  0  0  0  0  0
    2.2201   -8.5078   -3.1299 H   0  0  0  0  0  0  0  0  0  0  0  0
    2.4831   -6.3512   -1.9618 H   0  0  0  0  0  0  0  0  0  0  0  0
    1.3691    1.0770    2.1170 H   0  0  0  0  0  0  0  0  0  0  0  0
    2.6231    2.3359    3.8426 H   0  0  0  0  0  0  0  0  0  0  0  0
    5.0600    2.7289    3.5646 H   0  0  0  0  0  0  0  0  0  0  0  0
    6.2341    1.8850    1.5532 H   0  0  0  0  0  0  0  0  0  0  0  0
    4.9960    0.6271   -0.1826 H   0  0  0  0  0  0  0  0  0  0  0  0
  1  2  2  0  0  0  0
  2  3  1  0  0  0  0
  2 15  1  0  0  0  0
  3  4  1  0  0  0  0
  3 21  1  0  0  0  0
  4  5  2  0  0  0  0
  4 14  1  0  0  0  0
  5  6  1  0  0  0  0
  6  7  2  0  0  0  0
  6 22  1  0  0  0  0
  7  8  1  0  0  0  0
  7 14  1  0  0  0  0
  8  9  1  0  0  0  0
  8 13  2  0  0  0  0
  9 10  2  0  0  0  0
  9 23  1  0  0  0  0
 10 11  1  0  0  0  0
 10 24  1  0  0  0  0
 11 12  2  0  0  0  0
 11 25  1  0  0  0  0
 12 13  1  0  0  0  0
 12 26  1  0  0  0  0
 13 27  1  0  0  0  0
 15 16  1  0  0  0  0
 15 20  2  0  0  0  0
 16 17  2  0  0  0  0
 16 28  1  0  0  0  0
 17 18  1  0  0  0  0
 17 29  1  0  0  0  0
 18 19  2  0  0  0  0
 18 30  1  0  0  0  0
 19 20  1  0  0  0  0
 19 31  1  0  0  0  0
 20 32  1  0  0  0  0
M  END
$$$$
