CHEMBL3690416
 OpenBabel04072215373D

 52 56  0  0  0  0  0  0  0  0999 V2000
    3.8816   -1.4913    2.7615 O   0  0  0  0  0  0  0  0  0  0  0  0
    3.9629   -2.5886    2.2265 C   0  0  0  0  0  0  0  0  0  0  0  0
    3.4104   -3.7073    2.8184 N   0  0  0  0  0  0  0  0  0  0  0  0
    2.8385   -3.5850    4.1678 C   0  0  0  0  0  0  0  0  0  0  0  0
    3.8439   -3.6815    5.3247 C   0  0  0  0  0  0  0  0  0  0  0  0
    5.1036   -3.9137    4.8854 F   0  0  0  0  0  0  0  0  0  0  0  0
    3.8616   -2.5676    6.0853 F   0  0  0  0  0  0  0  0  0  0  0  0
    3.5174   -4.7197    6.1355 F   0  0  0  0  0  0  0  0  0  0  0  0
    4.5497   -2.8873    1.0141 N   0  0  0  0  0  0  0  0  0  0  0  0
    5.1920   -1.9828    0.1358 C   0  0  0  0  0  0  0  0  0  0  0  0
    5.2901   -0.6148    0.3801 C   0  0  0  0  0  0  0  0  0  0  0  0
    5.9266    0.2249   -0.5316 C   0  0  0  0  0  0  0  0  0  0  0  0
    6.5302   -0.3052   -1.6708 C   0  0  0  0  0  0  0  0  0  0  0  0
    6.5071   -1.6850   -1.9235 C   0  0  0  0  0  0  0  0  0  0  0  0
    7.2456   -2.2085   -3.0862 C   0  0  0  0  0  0  0  0  0  0  0  0
    7.4967   -1.5994   -4.3093 C   0  0  0  0  0  0  0  0  0  0  0  0
    8.2942   -2.3583   -5.1225 N   0  0  0  0  0  0  0  0  0  0  0  0
    8.5614   -3.4386   -4.4248 C   0  0  0  0  0  0  0  0  0  0  0  0
    9.3460   -4.5823   -4.7703 C   0  0  0  0  0  0  0  0  0  0  0  0
    9.5044   -5.6120   -3.9009 C   0  0  0  0  0  0  0  0  0  0  0  0
   10.2438   -6.7949   -4.2754 C   0  0  0  0  0  0  0  0  0  0  0  0
    9.9906   -8.0082   -3.8011 N   0  0  0  0  0  0  0  0  0  0  0  0
   10.8654   -8.9292   -4.3314 C   0  0  0  0  0  0  0  0  0  0  0  0
   11.8232   -8.4230   -5.1784 C   0  0  0  0  0  0  0  0  0  0  0  0
   11.6291   -6.7444   -5.3414 S   0  0  0  0  0  0  0  0  0  0  0  0
   12.9020   -9.2326   -5.8156 C   0  0  0  0  0  0  0  0  0  0  0  0
   12.6020  -10.6787   -5.7328 N   0  0  0  0  0  0  0  0  0  0  0  0
   12.1236  -11.0673   -4.3904 C   0  0  0  0  0  0  0  0  0  0  0  0
   10.7871  -10.3835   -4.0253 C   0  0  0  0  0  0  0  0  0  0  0  0
    8.8604   -5.5159   -2.5806 C   0  0  0  0  0  0  0  0  0  0  0  0
    8.1390   -4.4333   -2.2448 C   0  0  0  0  0  0  0  0  0  0  0  0
    7.9620   -3.4042   -3.1663 N   0  0  0  0  0  0  0  0  0  0  0  0
    5.7766   -2.4997   -1.0404 C   0  0  0  0  0  0  0  0  0  0  0  0
    3.8276   -4.5964    2.5862 H   0  0  0  0  0  0  0  0  0  0  0  0
    2.0977   -4.3855    4.2582 H   0  0  0  0  0  0  0  0  0  0  0  0
    2.2962   -2.6348    4.2387 H   0  0  0  0  0  0  0  0  0  0  0  0
    4.4958   -3.8476    0.7146 H   0  0  0  0  0  0  0  0  0  0  0  0
    4.8684   -0.1588    1.2694 H   0  0  0  0  0  0  0  0  0  0  0  0
    5.9658    1.2945   -0.3400 H   0  0  0  0  0  0  0  0  0  0  0  0
    7.0407    0.3786   -2.3449 H   0  0  0  0  0  0  0  0  0  0  0  0
    7.1417   -0.6326   -4.6444 H   0  0  0  0  0  0  0  0  0  0  0  0
    9.7767   -4.5820   -5.7664 H   0  0  0  0  0  0  0  0  0  0  0  0
   13.8560   -9.0329   -5.3135 H   0  0  0  0  0  0  0  0  0  0  0  0
   13.0146   -8.9641   -6.8711 H   0  0  0  0  0  0  0  0  0  0  0  0
   13.4464  -11.2018   -5.9600 H   0  0  0  0  0  0  0  0  0  0  0  0
   12.8907  -10.8222   -3.6446 H   0  0  0  0  0  0  0  0  0  0  0  0
   11.9861  -12.1539   -4.3598 H   0  0  0  0  0  0  0  0  0  0  0  0
   10.5595  -10.5452   -2.9659 H   0  0  0  0  0  0  0  0  0  0  0  0
    9.9751  -10.8240   -4.6162 H   0  0  0  0  0  0  0  0  0  0  0  0
    8.9937   -6.3422   -1.8892 H   0  0  0  0  0  0  0  0  0  0  0  0
    7.6904   -4.3412   -1.2664 H   0  0  0  0  0  0  0  0  0  0  0  0
    5.6607   -3.5563   -1.2658 H   0  0  0  0  0  0  0  0  0  0  0  0
  1  2  2  0  0  0  0
  2  3  1  0  0  0  0
  2  9  1  0  0  0  0
  3  4  1  0  0  0  0
  3 34  1  0  0  0  0
  4  5  1  0  0  0  0
  4 35  1  0  0  0  0
  4 36  1  0  0  0  0
  5  6  1  0  0  0  0
  5  7  1  0  0  0  0
  5  8  1  0  0  0  0
  9 10  1  0  0  0  0
  9 37  1  0  0  0  0
 10 11  1  0  0  0  0
 10 33  2  0  0  0  0
 11 12  2  0  0  0  0
 11 38  1  0  0  0  0
 12 13  1  0  0  0  0
 12 39  1  0  0  0  0
 13 14  2  0  0  0  0
 13 40  1  0  0  0  0
 14 15  1  0  0  0  0
 14 33  1  0  0  0  0
 15 16  2  0  0  0  0
 15 32  1  0  0  0  0
 16 17  1  0  0  0  0
 16 41  1  0  0  0  0
 17 18  2  0  0  0  0
 18 19  1  0  0  0  0
 18 32  1  0  0  0  0
 19 20  2  0  0  0  0
 19 42  1  0  0  0  0
 20 21  1  0  0  0  0
 20 30  1  0  0  0  0
 21 22  2  0  0  0  0
 21 25  1  0  0  0  0
 22 23  1  0  0  0  0
 23 24  2  0  0  0  0
 23 29  1  0  0  0  0
 24 25  1  0  0  0  0
 24 26  1  0  0  0  0
 26 27  1  0  0  0  0
 26 43  1  0  0  0  0
 26 44  1  0  0  0  0
 27 28  1  0  0  0  0
 27 45  1  0  0  0  0
 28 29  1  0  0  0  0
 28 46  1  0  0  0  0
 28 47  1  0  0  0  0
 29 48  1  0  0  0  0
 29 49  1  0  0  0  0
 30 31  2  0  0  0  0
 30 50  1  0  0  0  0
 31 32  1  0  0  0  0
 31 51  1  0  0  0  0
 33 52  1  0  0  0  0
M  END
$$$$
