CHEMBL4437803
 OpenBabel04072215383D

 47 49  0  0  0  0  0  0  0  0999 V2000
    1.2451    0.1708    0.6720 O   0  0  0  0  0  0  0  0  0  0  0  0
    2.3478    0.0525    0.1528 C   0  0  0  0  0  0  0  0  0  0  0  0
    2.8679    0.8336   -0.8663 N   0  0  0  0  0  0  0  0  0  0  0  0
    2.2424    1.9618   -1.4562 C   0  0  0  0  0  0  0  0  0  0  0  0
    1.1323    2.5815   -0.8814 C   0  0  0  0  0  0  0  0  0  0  0  0
    0.5134    3.6548   -1.5127 C   0  0  0  0  0  0  0  0  0  0  0  0
    1.0059    4.1333   -2.7236 C   0  0  0  0  0  0  0  0  0  0  0  0
    2.1400    3.5691   -3.3085 C   0  0  0  0  0  0  0  0  0  0  0  0
    2.6882    4.0535   -4.5227 N   0  0  0  0  0  0  0  0  0  0  0  0
    2.1836    5.0815   -5.3106 C   0  0  0  0  0  0  0  0  0  0  0  0
    1.1486    5.7135   -5.1222 O   0  0  0  0  0  0  0  0  0  0  0  0
    3.0184    5.4291   -6.5062 C   0  0  0  0  0  0  0  0  0  0  0  0
    2.5969    6.4573   -7.3495 C   0  0  0  0  0  0  0  0  0  0  0  0
    3.3931    6.7903   -8.4388 C   0  0  0  0  0  0  0  0  0  0  0  0
    4.5742    6.0921   -8.6502 C   0  0  0  0  0  0  0  0  0  0  0  0
    4.9136    5.0793   -7.7622 C   0  0  0  0  0  0  0  0  0  0  0  0
    4.1674    4.7221   -6.6894 N   0  0  0  0  0  0  0  0  0  0  0  0
    2.7622    2.4834   -2.6605 C   0  0  0  0  0  0  0  0  0  0  0  0
    3.2413   -0.9144    0.5718 N   0  0  0  0  0  0  0  0  0  0  0  0
    2.8751   -1.8833    1.6056 C   0  0  0  0  0  0  0  0  0  0  0  0
    4.1231   -2.3227    2.3804 C   0  0  0  0  0  0  0  0  0  0  0  0
    3.7999   -3.3823    3.4315 C   0  0  0  0  0  0  0  0  0  0  0  0
    3.0770   -4.5798    2.8231 C   0  0  0  0  0  0  0  0  0  0  0  0
    1.8295   -4.1507    2.0568 C   0  0  0  0  0  0  0  0  0  0  0  0
    2.1512   -3.0944    0.9992 C   0  0  0  0  0  0  0  0  0  0  0  0
    3.7138    0.5055   -1.3020 H   0  0  0  0  0  0  0  0  0  0  0  0
    0.7234    2.2591    0.0708 H   0  0  0  0  0  0  0  0  0  0  0  0
   -0.3590    4.1194   -1.0610 H   0  0  0  0  0  0  0  0  0  0  0  0
    0.4740    4.9640   -3.1743 H   0  0  0  0  0  0  0  0  0  0  0  0
    3.5442    3.6320   -4.8731 H   0  0  0  0  0  0  0  0  0  0  0  0
    1.6713    6.9908   -7.1568 H   0  0  0  0  0  0  0  0  0  0  0  0
    3.0925    7.5914   -9.1117 H   0  0  0  0  0  0  0  0  0  0  0  0
    5.2189    6.3339   -9.4894 H   0  0  0  0  0  0  0  0  0  0  0  0
    5.8316    4.5130   -7.8990 H   0  0  0  0  0  0  0  0  0  0  0  0
    3.6402    2.0278   -3.1086 H   0  0  0  0  0  0  0  0  0  0  0  0
    4.0113   -1.1454   -0.0324 H   0  0  0  0  0  0  0  0  0  0  0  0
    2.1909   -1.3902    2.3076 H   0  0  0  0  0  0  0  0  0  0  0  0
    4.5809   -1.4538    2.8684 H   0  0  0  0  0  0  0  0  0  0  0  0
    4.8728   -2.7199    1.6844 H   0  0  0  0  0  0  0  0  0  0  0  0
    3.1751   -2.9403    4.2175 H   0  0  0  0  0  0  0  0  0  0  0  0
    4.7262   -3.7174    3.9118 H   0  0  0  0  0  0  0  0  0  0  0  0
    2.8003   -5.2852    3.6153 H   0  0  0  0  0  0  0  0  0  0  0  0
    3.7567   -5.1116    2.1461 H   0  0  0  0  0  0  0  0  0  0  0  0
    1.0895   -3.7502    2.7608 H   0  0  0  0  0  0  0  0  0  0  0  0
    1.3733   -5.0255    1.5795 H   0  0  0  0  0  0  0  0  0  0  0  0
    1.2221   -2.7767    0.5107 H   0  0  0  0  0  0  0  0  0  0  0  0
    2.7742   -3.5459    0.2163 H   0  0  0  0  0  0  0  0  0  0  0  0
  1  2  2  0  0  0  0
  2  3  1  0  0  0  0
  2 19  1  0  0  0  0
  3  4  1  0  0  0  0
  3 26  1  0  0  0  0
  4  5  1  0  0  0  0
  4 18  2  0  0  0  0
  5  6  2  0  0  0  0
  5 27  1  0  0  0  0
  6  7  1  0  0  0  0
  6 28  1  0  0  0  0
  7  8  2  0  0  0  0
  7 29  1  0  0  0  0
  8  9  1  0  0  0  0
  8 18  1  0  0  0  0
  9 10  1  0  0  0  0
  9 30  1  0  0  0  0
 10 11  2  0  0  0  0
 10 12  1  0  0  0  0
 12 13  1  0  0  0  0
 12 17  2  0  0  0  0
 13 14  2  0  0  0  0
 13 31  1  0  0  0  0
 14 15  1  0  0  0  0
 14 32  1  0  0  0  0
 15 16  2  0  0  0  0
 15 33  1  0  0  0  0
 16 17  1  0  0  0  0
 16 34  1  0  0  0  0
 18 35  1  0  0  0  0
 19 20  1  0  0  0  0
 19 36  1  0  0  0  0
 20 21  1  0  0  0  0
 20 25  1  0  0  0  0
 20 37  1  0  0  0  0
 21 22  1  0  0  0  0
 21 38  1  0  0  0  0
 21 39  1  0  0  0  0
 22 23  1  0  0  0  0
 22 40  1  0  0  0  0
 22 41  1  0  0  0  0
 23 24  1  0  0  0  0
 23 42  1  0  0  0  0
 23 43  1  0  0  0  0
 24 25  1  0  0  0  0
 24 44  1  0  0  0  0
 24 45  1  0  0  0  0
 25 46  1  0  0  0  0
 25 47  1  0  0  0  0
M  END
$$$$
