CHEMBL508395
 OpenBabel04072215383D

 90 96  0  0  0  0  0  0  0  0999 V2000
    1.4779   -7.0146   -0.3228 C   0  0  0  0  0  0  0  0  0  0  0  0
    0.9168   -5.7080   -0.6380 N   0  0  0  0  0  0  0  0  0  0  0  0
   -0.4996   -5.6259   -0.2388 C   0  0  0  0  0  0  0  0  0  0  0  0
   -1.0883   -4.2400   -0.5804 C   0  0  0  0  0  0  0  0  0  0  0  0
   -0.3741   -3.1053    0.0395 N   0  0  0  0  0  0  0  0  0  0  0  0
   -0.5286   -3.0427    1.5040 C   0  0  0  0  0  0  0  0  0  0  0  0
   -1.9719   -2.8729    2.0222 C   0  0  0  0  0  0  0  0  0  0  0  0
   -2.0548   -2.8348    3.4994 N   0  0  0  0  0  0  0  0  0  0  0  0
   -1.3421   -1.6903    4.0733 C   0  0  0  0  0  0  0  0  0  0  0  0
   -3.4827   -2.8198    3.8770 C   0  0  0  0  0  0  0  0  0  0  0  0
   -3.7478   -2.7920    5.3579 C   0  0  0  0  0  0  0  0  0  0  0  0
   -4.4810   -1.7540    5.9353 C   0  0  0  0  0  0  0  0  0  0  0  0
   -4.7599   -1.7515    7.3032 C   0  0  0  0  0  0  0  0  0  0  0  0
   -4.3172   -2.8041    8.1151 C   0  0  0  0  0  0  0  0  0  0  0  0
   -4.5588   -2.7847    9.5577 C   0  0  0  0  0  0  0  0  0  0  0  0
   -5.6142   -2.2535   10.2790 C   0  0  0  0  0  0  0  0  0  0  0  0
   -5.4513   -2.4056   11.6852 C   0  0  0  0  0  0  0  0  0  0  0  0
   -6.3293   -1.9745   12.6388 N   0  0  0  0  0  0  0  0  0  0  0  0
   -5.9719   -2.2378   13.9117 C   0  0  0  0  0  0  0  0  0  0  0  0
   -4.8239   -2.8976   14.3075 C   0  0  0  0  0  0  0  0  0  0  0  0
   -3.9212   -3.2961   13.3313 C   0  0  0  0  0  0  0  0  0  0  0  0
   -2.7593   -3.9786   13.5888 O   0  0  0  0  0  0  0  0  0  0  0  0
   -1.9492   -3.5610   14.6099 C   0  0  0  0  0  0  0  0  0  0  0  0
   -1.9192   -2.2628   15.1178 C   0  0  0  0  0  0  0  0  0  0  0  0
   -1.0805   -1.9573   16.1827 C   0  0  0  0  0  0  0  0  0  0  0  0
   -0.2160   -2.9216   16.7005 C   0  0  0  0  0  0  0  0  0  0  0  0
    0.6912   -2.6527   17.7292 N   0  0  0  0  0  0  0  0  0  0  0  0
    0.8721   -1.4714   18.4049 C   0  0  0  0  0  0  0  0  0  0  0  0
    0.2527   -0.4235   18.2169 O   0  0  0  0  0  0  0  0  0  0  0  0
    1.8315   -1.5450   19.3921 N   0  0  0  0  0  0  0  0  0  0  0  0
    2.0328   -0.4606   20.3157 C   0  0  0  0  0  0  0  0  0  0  0  0
    2.9599   -1.0672   21.3421 C   0  0  0  0  0  0  0  0  0  0  0  0
    3.7038   -2.0332   20.5664 N   0  0  0  0  0  0  0  0  0  0  0  0
    4.9782   -2.5012   20.9279 C   0  0  0  0  0  0  0  0  0  0  0  0
    5.8404   -3.0560   19.9755 C   0  0  0  0  0  0  0  0  0  0  0  0
    7.1446   -3.4176   20.3226 C   0  0  0  0  0  0  0  0  0  0  0  0
    7.5855   -3.2598   21.6318 C   0  0  0  0  0  0  0  0  0  0  0  0
    6.7289   -2.7423   22.5984 C   0  0  0  0  0  0  0  0  0  0  0  0
    5.4351   -2.3576   22.2470 C   0  0  0  0  0  0  0  0  0  0  0  0
    2.9497   -2.4095   19.4400 C   0  0  0  0  0  0  0  0  0  0  0  0
    3.1669   -3.3170   18.6460 O   0  0  0  0  0  0  0  0  0  0  0  0
   -0.2189   -4.2125   16.1690 C   0  0  0  0  0  0  0  0  0  0  0  0
   -1.0816   -4.5197   15.1278 C   0  0  0  0  0  0  0  0  0  0  0  0
   -1.0719   -5.7622   14.6226 F   0  0  0  0  0  0  0  0  0  0  0  0
   -4.2670   -3.0569   12.0021 C   0  0  0  0  0  0  0  0  0  0  0  0
   -3.3754   -3.4494   10.6018 S   0  0  0  0  0  0  0  0  0  0  0  0
   -3.5956   -3.8526    7.5197 C   0  0  0  0  0  0  0  0  0  0  0  0
   -3.2913   -3.8382    6.1670 C   0  0  0  0  0  0  0  0  0  0  0  0
    1.0690   -3.2294   -0.2904 C   0  0  0  0  0  0  0  0  0  0  0  0
    1.6838   -4.6231    0.0017 C   0  0  0  0  0  0  0  0  0  0  0  0
    0.9230   -7.8010   -0.8463 H   0  0  0  0  0  0  0  0  0  0  0  0
    1.4568   -7.2320    0.7507 H   0  0  0  0  0  0  0  0  0  0  0  0
    2.5147   -7.0771   -0.6703 H   0  0  0  0  0  0  0  0  0  0  0  0
   -0.6203   -5.8307    0.8331 H   0  0  0  0  0  0  0  0  0  0  0  0
   -1.0789   -6.3852   -0.7771 H   0  0  0  0  0  0  0  0  0  0  0  0
   -2.1554   -4.2157   -0.3372 H   0  0  0  0  0  0  0  0  0  0  0  0
   -1.0519   -4.1044   -1.6704 H   0  0  0  0  0  0  0  0  0  0  0  0
    0.0526   -2.1703    1.8161 H   0  0  0  0  0  0  0  0  0  0  0  0
   -0.0852   -3.9135    2.0015 H   0  0  0  0  0  0  0  0  0  0  0  0
   -2.5576   -3.7331    1.6890 H   0  0  0  0  0  0  0  0  0  0  0  0
   -2.4258   -1.9754    1.5795 H   0  0  0  0  0  0  0  0  0  0  0  0
   -0.3479   -1.5418    3.6423 H   0  0  0  0  0  0  0  0  0  0  0  0
   -1.1472   -1.8654    5.1385 H   0  0  0  0  0  0  0  0  0  0  0  0
   -1.8921   -0.7529    3.9555 H   0  0  0  0  0  0  0  0  0  0  0  0
   -3.9644   -3.7360    3.5002 H   0  0  0  0  0  0  0  0  0  0  0  0
   -4.0003   -1.9814    3.3948 H   0  0  0  0  0  0  0  0  0  0  0  0
   -4.8447   -0.9218    5.3269 H   0  0  0  0  0  0  0  0  0  0  0  0
   -5.3098   -0.9129    7.7310 H   0  0  0  0  0  0  0  0  0  0  0  0
   -6.4726   -1.7738    9.8302 H   0  0  0  0  0  0  0  0  0  0  0  0
   -6.6789   -1.8881   14.6596 H   0  0  0  0  0  0  0  0  0  0  0  0
   -4.6302   -3.0715   15.3564 H   0  0  0  0  0  0  0  0  0  0  0  0
   -2.5390   -1.4695   14.7103 H   0  0  0  0  0  0  0  0  0  0  0  0
   -1.1187   -0.9451   16.5718 H   0  0  0  0  0  0  0  0  0  0  0  0
    1.3465   -3.3953   17.9728 H   0  0  0  0  0  0  0  0  0  0  0  0
    1.0894   -0.0923   20.7285 H   0  0  0  0  0  0  0  0  0  0  0  0
    2.5251    0.3550   19.7701 H   0  0  0  0  0  0  0  0  0  0  0  0
    2.3929   -1.6122   22.1056 H   0  0  0  0  0  0  0  0  0  0  0  0
    3.5995   -0.3101   21.8074 H   0  0  0  0  0  0  0  0  0  0  0  0
    5.5392   -3.1691   18.9384 H   0  0  0  0  0  0  0  0  0  0  0  0
    7.8136   -3.8097   19.5628 H   0  0  0  0  0  0  0  0  0  0  0  0
    8.6016   -3.5366   21.9010 H   0  0  0  0  0  0  0  0  0  0  0  0
    7.0648   -2.6323   23.6244 H   0  0  0  0  0  0  0  0  0  0  0  0
    4.7869   -1.9665   23.0244 H   0  0  0  0  0  0  0  0  0  0  0  0
    0.4348   -4.9907   16.5497 H   0  0  0  0  0  0  0  0  0  0  0  0
   -3.2498   -4.7007    8.1080 H   0  0  0  0  0  0  0  0  0  0  0  0
   -2.6903   -4.6404    5.7408 H   0  0  0  0  0  0  0  0  0  0  0  0
    1.6442   -2.4606    0.2425 H   0  0  0  0  0  0  0  0  0  0  0  0
    1.1956   -3.0020   -1.3561 H   0  0  0  0  0  0  0  0  0  0  0  0
    1.7444   -4.7811    1.0865 H   0  0  0  0  0  0  0  0  0  0  0  0
    2.7131   -4.6271   -0.3757 H   0  0  0  0  0  0  0  0  0  0  0  0
  1  2  1  0  0  0  0
  1 51  1  0  0  0  0
  1 52  1  0  0  0  0
  1 53  1  0  0  0  0
  2  3  1  0  0  0  0
  2 50  1  0  0  0  0
  3  4  1  0  0  0  0
  3 54  1  0  0  0  0
  3 55  1  0  0  0  0
  4  5  1  0  0  0  0
  4 56  1  0  0  0  0
  4 57  1  0  0  0  0
  5  6  1  0  0  0  0
  5 49  1  0  0  0  0
  6  7  1  0  0  0  0
  6 58  1  0  0  0  0
  6 59  1  0  0  0  0
  7  8  1  0  0  0  0
  7 60  1  0  0  0  0
  7 61  1  0  0  0  0
  8  9  1  0  0  0  0
  8 10  1  0  0  0  0
  9 62  1  0  0  0  0
  9 63  1  0  0  0  0
  9 64  1  0  0  0  0
 10 11  1  0  0  0  0
 10 65  1  0  0  0  0
 10 66  1  0  0  0  0
 11 12  1  0  0  0  0
 11 48  2  0  0  0  0
 12 13  2  0  0  0  0
 12 67  1  0  0  0  0
 13 14  1  0  0  0  0
 13 68  1  0  0  0  0
 14 15  1  0  0  0  0
 14 47  2  0  0  0  0
 15 16  2  0  0  0  0
 15 46  1  0  0  0  0
 16 17  1  0  0  0  0
 16 69  1  0  0  0  0
 17 18  1  0  0  0  0
 17 45  2  0  0  0  0
 18 19  2  0  0  0  0
 19 20  1  0  0  0  0
 19 70  1  0  0  0  0
 20 21  2  0  0  0  0
 20 71  1  0  0  0  0
 21 22  1  0  0  0  0
 21 45  1  0  0  0  0
 22 23  1  0  0  0  0
 23 24  1  0  0  0  0
 23 43  2  0  0  0  0
 24 25  2  0  0  0  0
 24 72  1  0  0  0  0
 25 26  1  0  0  0  0
 25 73  1  0  0  0  0
 26 27  1  0  0  0  0
 26 42  2  0  0  0  0
 27 28  1  0  0  0  0
 27 74  1  0  0  0  0
 28 29  2  0  0  0  0
 28 30  1  0  0  0  0
 30 31  1  0  0  0  0
 30 40  1  0  0  0  0
 31 32  1  0  0  0  0
 31 75  1  0  0  0  0
 31 76  1  0  0  0  0
 32 33  1  0  0  0  0
 32 77  1  0  0  0  0
 32 78  1  0  0  0  0
 33 34  1  0  0  0  0
 33 40  1  0  0  0  0
 34 35  1  0  0  0  0
 34 39  2  0  0  0  0
 35 36  2  0  0  0  0
 35 79  1  0  0  0  0
 36 37  1  0  0  0  0
 36 80  1  0  0  0  0
 37 38  2  0  0  0  0
 37 81  1  0  0  0  0
 38 39  1  0  0  0  0
 38 82  1  0  0  0  0
 39 83  1  0  0  0  0
 40 41  2  0  0  0  0
 42 43  1  0  0  0  0
 42 84  1  0  0  0  0
 43 44  1  0  0  0  0
 45 46  1  0  0  0  0
 47 48  1  0  0  0  0
 47 85  1  0  0  0  0
 48 86  1  0  0  0  0
 49 50  1  0  0  0  0
 49 87  1  0  0  0  0
 49 88  1  0  0  0  0
 50 89  1  0  0  0  0
 50 90  1  0  0  0  0
M  END
$$$$
