CHEMBL2032020
 OpenBabel04072215363D

 63 67  0  0  0  0  0  0  0  0999 V2000
    3.3345    3.9931   -1.3389 C   0  0  0  0  0  0  0  0  0  0  0  0
    2.2965    3.3325   -0.4373 C   0  0  0  0  0  0  0  0  0  0  0  0
    2.9421    2.6037    0.6420 N   0  0  0  0  0  0  0  0  0  0  0  0
    3.3075    3.1360    1.8800 C   0  0  0  0  0  0  0  0  0  0  0  0
    3.0730    4.5677    2.2604 C   0  0  0  0  0  0  0  0  0  0  0  0
    3.8836    2.2195    2.6804 C   0  0  0  0  0  0  0  0  0  0  0  0
    4.4002    2.4360    4.0566 C   0  0  0  0  0  0  0  0  0  0  0  0
    4.2738    3.5330    4.5944 O   0  0  0  0  0  0  0  0  0  0  0  0
    5.0472    1.3523    4.6193 N   0  0  0  0  0  0  0  0  0  0  0  0
    5.6928    1.3173    5.8794 C   0  0  0  0  0  0  0  0  0  0  0  0
    5.5318    2.2889    6.8741 C   0  0  0  0  0  0  0  0  0  0  0  0
    6.2324    2.2046    8.0889 C   0  0  0  0  0  0  0  0  0  0  0  0
    7.1114    1.1468    8.3272 C   0  0  0  0  0  0  0  0  0  0  0  0
    7.7802    1.1756    9.5345 O   0  0  0  0  0  0  0  0  0  0  0  0
    8.1076   -0.0109   10.1679 C   0  0  0  0  0  0  0  0  0  0  0  0
    7.2609   -1.1167   10.1400 C   0  0  0  0  0  0  0  0  0  0  0  0
    7.6941   -2.2765   10.7420 C   0  0  0  0  0  0  0  0  0  0  0  0
    8.8600   -2.3868   11.4071 N   0  0  0  0  0  0  0  0  0  0  0  0
    9.6438   -1.3001   11.5030 C   0  0  0  0  0  0  0  0  0  0  0  0
   10.8260   -1.4062   12.2233 C   0  0  0  0  0  0  0  0  0  0  0  0
   11.6927   -0.3277   12.3967 C   0  0  0  0  0  0  0  0  0  0  0  0
   12.8094   -0.6057   13.1405 O   0  0  0  0  0  0  0  0  0  0  0  0
   13.7459    0.4482   13.3257 C   0  0  0  0  0  0  0  0  0  0  0  0
   11.3665    0.9010   11.8383 C   0  0  0  0  0  0  0  0  0  0  0  0
   10.1863    1.0325   11.0925 C   0  0  0  0  0  0  0  0  0  0  0  0
    9.3117   -0.0660   10.9099 C   0  0  0  0  0  0  0  0  0  0  0  0
    7.2896    0.1968    7.3205 C   0  0  0  0  0  0  0  0  0  0  0  0
    8.1723   -0.8041    7.4617 F   0  0  0  0  0  0  0  0  0  0  0  0
    6.5625    0.2528    6.1279 C   0  0  0  0  0  0  0  0  0  0  0  0
    3.8907    0.9582    1.8949 C   0  0  0  0  0  0  0  0  0  0  0  0
    4.3748   -0.0724    2.3465 O   0  0  0  0  0  0  0  0  0  0  0  0
    3.2989    1.2241    0.6382 N   0  0  0  0  0  0  0  0  0  0  0  0
    2.9824    0.2445   -0.3579 C   0  0  0  0  0  0  0  0  0  0  0  0
    2.9468   -1.1208   -0.0190 C   0  0  0  0  0  0  0  0  0  0  0  0
    2.6344   -2.1172   -0.9570 C   0  0  0  0  0  0  0  0  0  0  0  0
    2.3447   -1.7773   -2.2713 C   0  0  0  0  0  0  0  0  0  0  0  0
    2.3881   -0.4442   -2.6439 C   0  0  0  0  0  0  0  0  0  0  0  0
    2.7176    0.5424   -1.7018 C   0  0  0  0  0  0  0  0  0  0  0  0
    2.8414    4.6063   -2.0992 H   0  0  0  0  0  0  0  0  0  0  0  0
    3.9665    3.2631   -1.8521 H   0  0  0  0  0  0  0  0  0  0  0  0
    4.0070    4.6402   -0.7651 H   0  0  0  0  0  0  0  0  0  0  0  0
    1.5874    2.7160   -0.9936 H   0  0  0  0  0  0  0  0  0  0  0  0
    1.6537    4.1194   -0.0271 H   0  0  0  0  0  0  0  0  0  0  0  0
    2.6132    5.1616    1.4681 H   0  0  0  0  0  0  0  0  0  0  0  0
    4.0192    5.0621    2.5042 H   0  0  0  0  0  0  0  0  0  0  0  0
    2.4040    4.6255    3.1251 H   0  0  0  0  0  0  0  0  0  0  0  0
    5.1490    0.5256    4.0288 H   0  0  0  0  0  0  0  0  0  0  0  0
    4.8525    3.1274    6.7446 H   0  0  0  0  0  0  0  0  0  0  0  0
    6.0872    2.9748    8.8441 H   0  0  0  0  0  0  0  0  0  0  0  0
    6.3024   -1.0978    9.6355 H   0  0  0  0  0  0  0  0  0  0  0  0
    7.0985   -3.1839   10.6979 H   0  0  0  0  0  0  0  0  0  0  0  0
   11.0780   -2.3664   12.6681 H   0  0  0  0  0  0  0  0  0  0  0  0
   14.5742    0.0576   13.9252 H   0  0  0  0  0  0  0  0  0  0  0  0
   13.2985    1.2799   13.8790 H   0  0  0  0  0  0  0  0  0  0  0  0
   14.1571    0.7838   12.3682 H   0  0  0  0  0  0  0  0  0  0  0  0
   11.9990    1.7740   11.9576 H   0  0  0  0  0  0  0  0  0  0  0  0
    9.9444    2.0024   10.6650 H   0  0  0  0  0  0  0  0  0  0  0  0
    6.7246   -0.5279    5.3910 H   0  0  0  0  0  0  0  0  0  0  0  0
    3.1380   -1.4565    0.9964 H   0  0  0  0  0  0  0  0  0  0  0  0
    2.6169   -3.1605   -0.6514 H   0  0  0  0  0  0  0  0  0  0  0  0
    2.1002   -2.5448   -3.0003 H   0  0  0  0  0  0  0  0  0  0  0  0
    2.1819   -0.1597   -3.6735 H   0  0  0  0  0  0  0  0  0  0  0  0
    2.8000    1.5395   -2.1006 H   0  0  0  0  0  0  0  0  0  0  0  0
  1  2  1  0  0  0  0
  1 39  1  0  0  0  0
  1 40  1  0  0  0  0
  1 41  1  0  0  0  0
  2  3  1  0  0  0  0
  2 42  1  0  0  0  0
  2 43  1  0  0  0  0
  3  4  1  0  0  0  0
  3 32  1  0  0  0  0
  4  5  1  0  0  0  0
  4  6  2  0  0  0  0
  5 44  1  0  0  0  0
  5 45  1  0  0  0  0
  5 46  1  0  0  0  0
  6  7  1  0  0  0  0
  6 30  1  0  0  0  0
  7  8  2  0  0  0  0
  7  9  1  0  0  0  0
  9 10  1  0  0  0  0
  9 47  1  0  0  0  0
 10 11  1  0  0  0  0
 10 29  2  0  0  0  0
 11 12  2  0  0  0  0
 11 48  1  0  0  0  0
 12 13  1  0  0  0  0
 12 49  1  0  0  0  0
 13 14  1  0  0  0  0
 13 27  2  0  0  0  0
 14 15  1  0  0  0  0
 15 16  1  0  0  0  0
 15 26  2  0  0  0  0
 16 17  2  0  0  0  0
 16 50  1  0  0  0  0
 17 18  1  0  0  0  0
 17 51  1  0  0  0  0
 18 19  2  0  0  0  0
 19 20  1  0  0  0  0
 19 26  1  0  0  0  0
 20 21  2  0  0  0  0
 20 52  1  0  0  0  0
 21 22  1  0  0  0  0
 21 24  1  0  0  0  0
 22 23  1  0  0  0  0
 23 53  1  0  0  0  0
 23 54  1  0  0  0  0
 23 55  1  0  0  0  0
 24 25  2  0  0  0  0
 24 56  1  0  0  0  0
 25 26  1  0  0  0  0
 25 57  1  0  0  0  0
 27 28  1  0  0  0  0
 27 29  1  0  0  0  0
 29 58  1  0  0  0  0
 30 31  2  0  0  0  0
 30 32  1  0  0  0  0
 32 33  1  0  0  0  0
 33 34  1  0  0  0  0
 33 38  2  0  0  0  0
 34 35  2  0  0  0  0
 34 59  1  0  0  0  0
 35 36  1  0  0  0  0
 35 60  1  0  0  0  0
 36 37  2  0  0  0  0
 36 61  1  0  0  0  0
 37 38  1  0  0  0  0
 37 62  1  0  0  0  0
 38 63  1  0  0  0  0
M  END
$$$$
