CHEMBL3676356
 OpenBabel04072215373D

 51 53  0  0  0  0  0  0  0  0999 V2000
    2.5348   -2.1009   -1.5510 C   0  0  0  0  0  0  0  0  0  0  0  0
    3.1923   -1.1111   -0.9428 C   0  0  0  0  0  0  0  0  0  0  0  0
    4.0415   -0.1889   -1.7388 C   0  0  0  0  0  0  0  0  0  0  0  0
    4.2810   -0.4013   -2.9160 O   0  0  0  0  0  0  0  0  0  0  0  0
    4.4674    0.9300   -1.0215 N   0  0  0  0  0  0  0  0  0  0  0  0
    5.1993    1.9374   -1.6933 C   0  0  0  0  0  0  0  0  0  0  0  0
    6.3145    1.5401   -2.4382 C   0  0  0  0  0  0  0  0  0  0  0  0
    6.9510    2.4267   -3.3294 C   0  0  0  0  0  0  0  0  0  0  0  0
    7.9808    2.0840   -4.2160 C   0  0  0  0  0  0  0  0  0  0  0  0
    8.5190    0.7690   -4.1901 N   0  0  0  0  0  0  0  0  0  0  0  0
    9.6646    0.3261   -4.8912 C   0  0  0  0  0  0  0  0  0  0  0  0
   10.7489    1.1728   -5.1670 C   0  0  0  0  0  0  0  0  0  0  0  0
   11.8344    0.7331   -5.9215 C   0  0  0  0  0  0  0  0  0  0  0  0
   13.0679    1.8834   -6.2913 Cl  0  0  0  0  0  0  0  0  0  0  0  0
   11.8838   -0.5944   -6.3570 C   0  0  0  0  0  0  0  0  0  0  0  0
   13.1701   -1.1932   -7.3405 Cl  0  0  0  0  0  0  0  0  0  0  0  0
   10.8669   -1.4817   -6.0019 C   0  0  0  0  0  0  0  0  0  0  0  0
    9.7786   -1.0167   -5.2694 C   0  0  0  0  0  0  0  0  0  0  0  0
    8.8001   -1.8773   -4.9475 F   0  0  0  0  0  0  0  0  0  0  0  0
    8.4848    2.9777   -5.0857 N   0  0  0  0  0  0  0  0  0  0  0  0
    7.9872    4.2142   -5.0544 C   0  0  0  0  0  0  0  0  0  0  0  0
    7.0389    4.6508   -4.2262 N   0  0  0  0  0  0  0  0  0  0  0  0
    6.5283    3.7532   -3.3829 C   0  0  0  0  0  0  0  0  0  0  0  0
    5.5068    4.1627   -2.5438 C   0  0  0  0  0  0  0  0  0  0  0  0
    4.7836    3.2732   -1.7231 C   0  0  0  0  0  0  0  0  0  0  0  0
    3.6212    3.6532   -1.0609 O   0  0  0  0  0  0  0  0  0  0  0  0
    3.0499    4.8568   -1.6223 C   0  0  0  0  0  0  0  0  0  0  0  0
    1.5908    5.1456   -1.2334 C   0  0  0  0  0  0  0  0  0  0  0  0
    1.0387    6.2943   -1.9990 N   0  0  0  0  0  0  0  0  0  0  0  0
    0.9690    6.0319   -3.4425 C   0  0  0  0  0  0  0  0  0  0  0  0
   -0.2896    6.6636   -1.5094 C   0  0  0  0  0  0  0  0  0  0  0  0
    1.9266   -2.8050   -0.9848 H   0  0  0  0  0  0  0  0  0  0  0  0
    2.5850   -2.2515   -2.6346 H   0  0  0  0  0  0  0  0  0  0  0  0
    3.1447   -0.9775    0.1220 H   0  0  0  0  0  0  0  0  0  0  0  0
    3.9691    1.1968   -0.1856 H   0  0  0  0  0  0  0  0  0  0  0  0
    6.6573    0.5100   -2.3629 H   0  0  0  0  0  0  0  0  0  0  0  0
    7.7689    0.0813   -4.2445 H   0  0  0  0  0  0  0  0  0  0  0  0
   10.7336    2.2033   -4.8146 H   0  0  0  0  0  0  0  0  0  0  0  0
   10.9000   -2.5235   -6.3016 H   0  0  0  0  0  0  0  0  0  0  0  0
    8.3912    4.9255   -5.7649 H   0  0  0  0  0  0  0  0  0  0  0  0
    5.2432    5.2135   -2.6172 H   0  0  0  0  0  0  0  0  0  0  0  0
    3.0782    4.7505   -2.7102 H   0  0  0  0  0  0  0  0  0  0  0  0
    3.6535    5.7172   -1.3058 H   0  0  0  0  0  0  0  0  0  0  0  0
    1.5736    5.3820   -0.1629 H   0  0  0  0  0  0  0  0  0  0  0  0
    0.9752    4.2454   -1.3626 H   0  0  0  0  0  0  0  0  0  0  0  0
    1.9673    5.9880   -3.8895 H   0  0  0  0  0  0  0  0  0  0  0  0
    0.4626    6.8494   -3.9677 H   0  0  0  0  0  0  0  0  0  0  0  0
    0.4402    5.0989   -3.6657 H   0  0  0  0  0  0  0  0  0  0  0  0
   -0.2400    6.9869   -0.4650 H   0  0  0  0  0  0  0  0  0  0  0  0
   -1.0043    5.8383   -1.5934 H   0  0  0  0  0  0  0  0  0  0  0  0
   -0.6842    7.5160   -2.0768 H   0  0  0  0  0  0  0  0  0  0  0  0
  1  2  2  0  0  0  0
  1 32  1  0  0  0  0
  1 33  1  0  0  0  0
  2  3  1  0  0  0  0
  2 34  1  0  0  0  0
  3  4  2  0  0  0  0
  3  5  1  0  0  0  0
  5  6  1  0  0  0  0
  5 35  1  0  0  0  0
  6  7  1  0  0  0  0
  6 25  2  0  0  0  0
  7  8  2  0  0  0  0
  7 36  1  0  0  0  0
  8  9  1  0  0  0  0
  8 23  1  0  0  0  0
  9 10  1  0  0  0  0
  9 20  2  0  0  0  0
 10 11  1  0  0  0  0
 10 37  1  0  0  0  0
 11 12  1  0  0  0  0
 11 18  2  0  0  0  0
 12 13  2  0  0  0  0
 12 38  1  0  0  0  0
 13 14  1  0  0  0  0
 13 15  1  0  0  0  0
 15 16  1  0  0  0  0
 15 17  2  0  0  0  0
 17 18  1  0  0  0  0
 17 39  1  0  0  0  0
 18 19  1  0  0  0  0
 20 21  1  0  0  0  0
 21 22  2  0  0  0  0
 21 40  1  0  0  0  0
 22 23  1  0  0  0  0
 23 24  2  0  0  0  0
 24 25  1  0  0  0  0
 24 41  1  0  0  0  0
 25 26  1  0  0  0  0
 26 27  1  0  0  0  0
 27 28  1  0  0  0  0
 27 42  1  0  0  0  0
 27 43  1  0  0  0  0
 28 29  1  0  0  0  0
 28 44  1  0  0  0  0
 28 45  1  0  0  0  0
 29 30  1  0  0  0  0
 29 31  1  0  0  0  0
 30 46  1  0  0  0  0
 30 47  1  0  0  0  0
 30 48  1  0  0  0  0
 31 49  1  0  0  0  0
 31 50  1  0  0  0  0
 31 51  1  0  0  0  0
M  END
$$$$
