CHEMBL3671571
 OpenBabel04072215373D

 67 70  0  0  0  0  0  0  0  0999 V2000
    1.6056    1.2057    0.6754 C   0  0  0  0  0  0  0  0  0  0  0  0
    2.5558    0.3559    0.2609 C   0  0  0  0  0  0  0  0  0  0  0  0
    3.1497   -0.6848    1.1619 C   0  0  0  0  0  0  0  0  0  0  0  0
    2.6058   -1.0187    2.2068 O   0  0  0  0  0  0  0  0  0  0  0  0
    4.3939   -1.0989    0.7163 N   0  0  0  0  0  0  0  0  0  0  0  0
    5.1797   -2.0364    1.4329 C   0  0  0  0  0  0  0  0  0  0  0  0
    6.4281   -1.5773    1.8763 C   0  0  0  0  0  0  0  0  0  0  0  0
    7.2442   -2.3579    2.7289 C   0  0  0  0  0  0  0  0  0  0  0  0
    8.3798   -1.8979    3.4202 C   0  0  0  0  0  0  0  0  0  0  0  0
    8.7010   -0.5110    3.3974 N   0  0  0  0  0  0  0  0  0  0  0  0
    9.4841    0.1307    4.3866 C   0  0  0  0  0  0  0  0  0  0  0  0
    9.2877   -0.1662    5.7428 C   0  0  0  0  0  0  0  0  0  0  0  0
   10.1653    0.3078    6.7168 C   0  0  0  0  0  0  0  0  0  0  0  0
   11.2347    1.1160    6.3425 C   0  0  0  0  0  0  0  0  0  0  0  0
   12.5176    1.6135    7.6382 Br  0  0  0  0  0  0  0  0  0  0  0  0
   11.3894    1.5144    5.0168 C   0  0  0  0  0  0  0  0  0  0  0  0
   10.5057    1.0287    4.0528 C   0  0  0  0  0  0  0  0  0  0  0  0
   10.6801    1.3916    2.7719 F   0  0  0  0  0  0  0  0  0  0  0  0
    9.1184   -2.7177    4.1969 N   0  0  0  0  0  0  0  0  0  0  0  0
    8.7127   -3.9838    4.3122 C   0  0  0  0  0  0  0  0  0  0  0  0
    7.6167   -4.5023    3.7551 N   0  0  0  0  0  0  0  0  0  0  0  0
    6.8887   -3.6812    2.9926 C   0  0  0  0  0  0  0  0  0  0  0  0
    5.7062   -4.1609    2.4568 C   0  0  0  0  0  0  0  0  0  0  0  0
    4.8027   -3.3585    1.7270 C   0  0  0  0  0  0  0  0  0  0  0  0
    3.6090   -3.8713    1.2487 O   0  0  0  0  0  0  0  0  0  0  0  0
    3.1674   -5.0383    1.9677 C   0  0  0  0  0  0  0  0  0  0  0  0
    1.6886   -5.3444    1.7833 C   0  0  0  0  0  0  0  0  0  0  0  0
    1.2784   -6.4175    2.6886 N   0  0  0  0  0  0  0  0  0  0  0  0
    1.3539   -7.7488    2.3337 C   0  0  0  0  0  0  0  0  0  0  0  0
    1.8045   -8.1256    1.2688 O   0  0  0  0  0  0  0  0  0  0  0  0
    0.8565   -8.7415    3.4045 C   0  0  0  0  0  0  0  0  0  0  0  0
   -0.1932   -8.1584    4.2747 N   0  0  0  0  0  0  0  0  0  0  0  0
   -1.3873   -7.7671    3.4921 C   0  0  0  0  0  0  0  0  0  0  0  0
   -2.4839   -7.1766    4.4027 C   0  0  0  0  0  0  0  0  0  0  0  0
   -2.9323   -8.0764    5.4801 N   0  0  0  0  0  0  0  0  0  0  0  0
   -3.7728   -9.1510    4.9575 C   0  0  0  0  0  0  0  0  0  0  0  0
   -1.7525   -8.5987    6.1994 C   0  0  0  0  0  0  0  0  0  0  0  0
   -0.6161   -9.1488    5.2981 C   0  0  0  0  0  0  0  0  0  0  0  0
    1.1361    1.9027   -0.0154 H   0  0  0  0  0  0  0  0  0  0  0  0
    1.2568    1.2159    1.7035 H   0  0  0  0  0  0  0  0  0  0  0  0
    2.8779    0.3562   -0.7740 H   0  0  0  0  0  0  0  0  0  0  0  0
    4.9087   -0.3476    0.2685 H   0  0  0  0  0  0  0  0  0  0  0  0
    6.7441   -0.5685    1.6272 H   0  0  0  0  0  0  0  0  0  0  0  0
    8.9049   -0.1891    2.4560 H   0  0  0  0  0  0  0  0  0  0  0  0
    8.4701   -0.8196    6.0401 H   0  0  0  0  0  0  0  0  0  0  0  0
   10.0252   -0.0002    7.7493 H   0  0  0  0  0  0  0  0  0  0  0  0
   12.2095    2.1578    4.7165 H   0  0  0  0  0  0  0  0  0  0  0  0
    9.3200   -4.6466    4.9207 H   0  0  0  0  0  0  0  0  0  0  0  0
    5.4915   -5.2074    2.6570 H   0  0  0  0  0  0  0  0  0  0  0  0
    3.3174   -4.8798    3.0436 H   0  0  0  0  0  0  0  0  0  0  0  0
    3.7388   -5.9206    1.6466 H   0  0  0  0  0  0  0  0  0  0  0  0
    1.4858   -5.6454    0.7504 H   0  0  0  0  0  0  0  0  0  0  0  0
    1.0755   -4.4649    2.0003 H   0  0  0  0  0  0  0  0  0  0  0  0
    1.0099   -6.2058    3.6447 H   0  0  0  0  0  0  0  0  0  0  0  0
    1.7294   -9.0213    4.0066 H   0  0  0  0  0  0  0  0  0  0  0  0
    0.4892   -9.6369    2.8899 H   0  0  0  0  0  0  0  0  0  0  0  0
   -1.7777   -8.6191    2.9215 H   0  0  0  0  0  0  0  0  0  0  0  0
   -1.1374   -6.9914    2.7628 H   0  0  0  0  0  0  0  0  0  0  0  0
   -3.3346   -6.8586    3.7885 H   0  0  0  0  0  0  0  0  0  0  0  0
   -2.0955   -6.2580    4.8640 H   0  0  0  0  0  0  0  0  0  0  0  0
   -4.6330   -8.7341    4.4207 H   0  0  0  0  0  0  0  0  0  0  0  0
   -4.1796   -9.7472    5.7804 H   0  0  0  0  0  0  0  0  0  0  0  0
   -3.2441   -9.8246    4.2757 H   0  0  0  0  0  0  0  0  0  0  0  0
   -2.0605   -9.3685    6.9197 H   0  0  0  0  0  0  0  0  0  0  0  0
   -1.3409   -7.7799    6.8046 H   0  0  0  0  0  0  0  0  0  0  0  0
   -0.9507  -10.0809    4.8230 H   0  0  0  0  0  0  0  0  0  0  0  0
    0.2358   -9.4056    5.9396 H   0  0  0  0  0  0  0  0  0  0  0  0
  1  2  2  0  0  0  0
  1 39  1  0  0  0  0
  1 40  1  0  0  0  0
  2  3  1  0  0  0  0
  2 41  1  0  0  0  0
  3  4  2  0  0  0  0
  3  5  1  0  0  0  0
  5  6  1  0  0  0  0
  5 42  1  0  0  0  0
  6  7  1  0  0  0  0
  6 24  2  0  0  0  0
  7  8  2  0  0  0  0
  7 43  1  0  0  0  0
  8  9  1  0  0  0  0
  8 22  1  0  0  0  0
  9 10  1  0  0  0  0
  9 19  2  0  0  0  0
 10 11  1  0  0  0  0
 10 44  1  0  0  0  0
 11 12  1  0  0  0  0
 11 17  2  0  0  0  0
 12 13  2  0  0  0  0
 12 45  1  0  0  0  0
 13 14  1  0  0  0  0
 13 46  1  0  0  0  0
 14 15  1  0  0  0  0
 14 16  2  0  0  0  0
 16 17  1  0  0  0  0
 16 47  1  0  0  0  0
 17 18  1  0  0  0  0
 19 20  1  0  0  0  0
 20 21  2  0  0  0  0
 20 48  1  0  0  0  0
 21 22  1  0  0  0  0
 22 23  2  0  0  0  0
 23 24  1  0  0  0  0
 23 49  1  0  0  0  0
 24 25  1  0  0  0  0
 25 26  1  0  0  0  0
 26 27  1  0  0  0  0
 26 50  1  0  0  0  0
 26 51  1  0  0  0  0
 27 28  1  0  0  0  0
 27 52  1  0  0  0  0
 27 53  1  0  0  0  0
 28 29  1  0  0  0  0
 28 54  1  0  0  0  0
 29 30  2  0  0  0  0
 29 31  1  0  0  0  0
 31 32  1  0  0  0  0
 31 55  1  0  0  0  0
 31 56  1  0  0  0  0
 32 33  1  0  0  0  0
 32 38  1  0  0  0  0
 33 34  1  0  0  0  0
 33 57  1  0  0  0  0
 33 58  1  0  0  0  0
 34 35  1  0  0  0  0
 34 59  1  0  0  0  0
 34 60  1  0  0  0  0
 35 36  1  0  0  0  0
 35 37  1  0  0  0  0
 36 61  1  0  0  0  0
 36 62  1  0  0  0  0
 36 63  1  0  0  0  0
 37 38  1  0  0  0  0
 37 64  1  0  0  0  0
 37 65  1  0  0  0  0
 38 66  1  0  0  0  0
 38 67  1  0  0  0  0
M  END
$$$$
