CHEMBL4175943
 OpenBabel04072215383D

 43 46  0  0  0  0  0  0  0  0999 V2000
   -1.3742    2.0668   -3.1101 N   0  0  0  0  0  0  0  0  0  0  0  0
   -1.6042    0.9487   -2.3989 C   0  0  0  0  0  0  0  0  0  0  0  0
   -2.1091   -0.1267   -2.9903 N   0  0  0  0  0  0  0  0  0  0  0  0
   -2.2429   -1.0056   -1.9928 N   0  0  0  0  0  0  0  0  0  0  0  0
   -1.8310   -0.5419   -0.7728 C   0  0  0  0  0  0  0  0  0  0  0  0
   -1.8463   -1.1688    0.4762 C   0  0  0  0  0  0  0  0  0  0  0  0
   -1.3496   -0.4508    1.5560 C   0  0  0  0  0  0  0  0  0  0  0  0
   -0.8635    0.8410    1.3787 C   0  0  0  0  0  0  0  0  0  0  0  0
   -0.8676    1.4951    0.1189 C   0  0  0  0  0  0  0  0  0  0  0  0
   -0.4364    2.9019    0.0228 C   0  0  0  0  0  0  0  0  0  0  0  0
    0.3848    3.3970   -0.9955 C   0  0  0  0  0  0  0  0  0  0  0  0
    0.6689    4.7703   -1.1021 C   0  0  0  0  0  0  0  0  0  0  0  0
    0.1852    5.6843   -0.1570 C   0  0  0  0  0  0  0  0  0  0  0  0
    0.4240    7.0579   -0.4001 N   0  0  0  0  0  0  0  0  0  0  0  0
    0.0252    8.2178    0.2641 C   0  0  0  0  0  0  0  0  0  0  0  0
   -0.8062    8.3675    1.7135 S   0  0  0  0  0  0  0  0  0  0  0  0
    0.3456    9.3240   -0.5391 N   0  0  0  0  0  0  0  0  0  0  0  0
    0.5539   10.6470   -0.0855 C   0  0  0  0  0  0  0  0  0  0  0  0
    0.1101   11.7072   -0.8794 C   0  0  0  0  0  0  0  0  0  0  0  0
    0.3028   13.0233   -0.4503 C   0  0  0  0  0  0  0  0  0  0  0  0
    0.9603   13.2856    0.7552 C   0  0  0  0  0  0  0  0  0  0  0  0
    1.1718   14.9364    1.2157 Cl  0  0  0  0  0  0  0  0  0  0  0  0
    1.4296   12.2248    1.5348 C   0  0  0  0  0  0  0  0  0  0  0  0
    2.2632   12.4660    3.0292 Cl  0  0  0  0  0  0  0  0  0  0  0  0
    1.2327   10.9106    1.1071 C   0  0  0  0  0  0  0  0  0  0  0  0
   -0.5284    5.1776    0.9199 C   0  0  0  0  0  0  0  0  0  0  0  0
   -0.8522    3.8202    0.9966 C   0  0  0  0  0  0  0  0  0  0  0  0
   -1.3718    0.7597   -0.9950 C   0  0  0  0  0  0  0  0  0  0  0  0
   -1.7612    2.0560   -4.0482 H   0  0  0  0  0  0  0  0  0  0  0  0
   -1.4787    2.9628   -2.6527 H   0  0  0  0  0  0  0  0  0  0  0  0
   -2.6339   -1.9141   -2.2038 H   0  0  0  0  0  0  0  0  0  0  0  0
   -2.2302   -2.1762    0.6060 H   0  0  0  0  0  0  0  0  0  0  0  0
   -1.3456   -0.8963    2.5485 H   0  0  0  0  0  0  0  0  0  0  0  0
   -0.4815    1.3637    2.2569 H   0  0  0  0  0  0  0  0  0  0  0  0
    0.7889    2.7205   -1.7474 H   0  0  0  0  0  0  0  0  0  0  0  0
    1.2531    5.1038   -1.9563 H   0  0  0  0  0  0  0  0  0  0  0  0
    1.0223    7.2415   -1.1974 H   0  0  0  0  0  0  0  0  0  0  0  0
    0.0239    9.2285   -1.4941 H   0  0  0  0  0  0  0  0  0  0  0  0
   -0.4203   11.5273   -1.8099 H   0  0  0  0  0  0  0  0  0  0  0  0
   -0.0708   13.8437   -1.0592 H   0  0  0  0  0  0  0  0  0  0  0  0
    1.6275   10.0944    1.7094 H   0  0  0  0  0  0  0  0  0  0  0  0
   -0.8795    5.7874    1.7376 H   0  0  0  0  0  0  0  0  0  0  0  0
   -1.4610    3.4989    1.8404 H   0  0  0  0  0  0  0  0  0  0  0  0
  1  2  1  0  0  0  0
  1 29  1  0  0  0  0
  1 30  1  0  0  0  0
  2  3  2  0  0  0  0
  2 28  1  0  0  0  0
  3  4  1  0  0  0  0
  4  5  1  0  0  0  0
  4 31  1  0  0  0  0
  5  6  1  0  0  0  0
  5 28  2  0  0  0  0
  6  7  2  0  0  0  0
  6 32  1  0  0  0  0
  7  8  1  0  0  0  0
  7 33  1  0  0  0  0
  8  9  2  0  0  0  0
  8 34  1  0  0  0  0
  9 10  1  0  0  0  0
  9 28  1  0  0  0  0
 10 11  1  0  0  0  0
 10 27  2  0  0  0  0
 11 12  2  0  0  0  0
 11 35  1  0  0  0  0
 12 13  1  0  0  0  0
 12 36  1  0  0  0  0
 13 14  1  0  0  0  0
 13 26  2  0  0  0  0
 14 15  1  0  0  0  0
 14 37  1  0  0  0  0
 15 16  2  0  0  0  0
 15 17  1  0  0  0  0
 17 18  1  0  0  0  0
 17 38  1  0  0  0  0
 18 19  1  0  0  0  0
 18 25  2  0  0  0  0
 19 20  2  0  0  0  0
 19 39  1  0  0  0  0
 20 21  1  0  0  0  0
 20 40  1  0  0  0  0
 21 22  1  0  0  0  0
 21 23  2  0  0  0  0
 23 24  1  0  0  0  0
 23 25  1  0  0  0  0
 25 41  1  0  0  0  0
 26 27  1  0  0  0  0
 26 42  1  0  0  0  0
 27 43  1  0  0  0  0
M  END
$$$$
