CHEMBL1221633
 OpenBabel04072215363D

 51 54  0  0  0  0  0  0  0  0999 V2000
    0.6646    0.0663   -0.3866 O   0  0  0  0  0  0  0  0  0  0  0  0
    1.3665    0.5513   -1.2672 C   0  0  0  0  0  0  0  0  0  0  0  0
    2.2215    1.7857   -1.0286 C   0  0  0  0  0  0  0  0  0  0  0  0
    2.0776    2.3036    0.4035 C   0  0  0  0  0  0  0  0  0  0  0  0
    2.7771    3.6112    0.6198 C   0  0  0  0  0  0  0  0  0  0  0  0
    2.2035    4.8585    0.4785 C   0  0  0  0  0  0  0  0  0  0  0  0
    3.1438    5.8124    0.7781 N   0  0  0  0  0  0  0  0  0  0  0  0
    2.8842    7.2508    0.7675 C   0  0  0  0  0  0  0  0  0  0  0  0
    3.2940    7.8723   -0.5476 C   0  0  0  0  0  0  0  0  0  0  0  0
    2.6510    7.5054   -1.7413 C   0  0  0  0  0  0  0  0  0  0  0  0
    3.0893    8.0044   -2.9682 C   0  0  0  0  0  0  0  0  0  0  0  0
    4.1614    8.8909   -3.0090 C   0  0  0  0  0  0  0  0  0  0  0  0
    4.7384    9.4616   -4.5255 Cl  0  0  0  0  0  0  0  0  0  0  0  0
    4.7783    9.3056   -1.8308 C   0  0  0  0  0  0  0  0  0  0  0  0
    4.3441    8.8008   -0.6026 C   0  0  0  0  0  0  0  0  0  0  0  0
    4.3383    5.2105    1.1110 C   0  0  0  0  0  0  0  0  0  0  0  0
    5.5801    5.7591    1.4773 C   0  0  0  0  0  0  0  0  0  0  0  0
    6.6271    4.8854    1.7795 C   0  0  0  0  0  0  0  0  0  0  0  0
    6.4467    3.5077    1.7165 C   0  0  0  0  0  0  0  0  0  0  0  0
    5.2097    2.9672    1.3435 C   0  0  0  0  0  0  0  0  0  0  0  0
    4.1321    3.8285    1.0287 C   0  0  0  0  0  0  0  0  0  0  0  0
    1.5077    0.0567   -2.5586 N   0  0  0  0  0  0  0  0  0  0  0  0
    0.8707   -1.0879   -3.0883 C   0  0  0  0  0  0  0  0  0  0  0  0
   -0.2363   -1.6984   -2.4896 C   0  0  0  0  0  0  0  0  0  0  0  0
   -0.7580   -2.8944   -2.9963 C   0  0  0  0  0  0  0  0  0  0  0  0
   -0.1683   -3.4834   -4.1184 C   0  0  0  0  0  0  0  0  0  0  0  0
   -0.6460   -4.7894   -4.5906 N   0  3  0  0  0  0  0  0  0  0  0  0
   -1.5751   -5.3246   -3.9691 O   0  0  0  0  0  0  0  0  0  0  0  0
   -0.0811   -5.2866   -5.5754 O   0  5  0  0  0  0  0  0  0  0  0  0
    0.8936   -2.8483   -4.7722 C   0  0  0  0  0  0  0  0  0  0  0  0
    1.3999   -1.6456   -4.2609 C   0  0  0  0  0  0  0  0  0  0  0  0
    1.9121    2.5558   -1.7455 H   0  0  0  0  0  0  0  0  0  0  0  0
    3.2689    1.5328   -1.2316 H   0  0  0  0  0  0  0  0  0  0  0  0
    2.4587    1.5574    1.1122 H   0  0  0  0  0  0  0  0  0  0  0  0
    1.0142    2.4327    0.6459 H   0  0  0  0  0  0  0  0  0  0  0  0
    1.1990    5.1391    0.1899 H   0  0  0  0  0  0  0  0  0  0  0  0
    3.4235    7.6909    1.6142 H   0  0  0  0  0  0  0  0  0  0  0  0
    1.8153    7.4079    0.9484 H   0  0  0  0  0  0  0  0  0  0  0  0
    1.8212    6.8019   -1.7271 H   0  0  0  0  0  0  0  0  0  0  0  0
    2.6024    7.6828   -3.8845 H   0  0  0  0  0  0  0  0  0  0  0  0
    5.6081   10.0065   -1.8630 H   0  0  0  0  0  0  0  0  0  0  0  0
    4.8477    9.1226    0.3066 H   0  0  0  0  0  0  0  0  0  0  0  0
    5.7354    6.8320    1.5278 H   0  0  0  0  0  0  0  0  0  0  0  0
    7.5952    5.2893    2.0695 H   0  0  0  0  0  0  0  0  0  0  0  0
    7.2721    2.8429    1.9592 H   0  0  0  0  0  0  0  0  0  0  0  0
    5.0819    1.8894    1.3058 H   0  0  0  0  0  0  0  0  0  0  0  0
    2.2467    0.4625   -3.1203 H   0  0  0  0  0  0  0  0  0  0  0  0
   -0.7175   -1.2667   -1.6159 H   0  0  0  0  0  0  0  0  0  0  0  0
   -1.6037   -3.3552   -2.4896 H   0  0  0  0  0  0  0  0  0  0  0  0
    1.3520   -3.2843   -5.6577 H   0  0  0  0  0  0  0  0  0  0  0  0
    2.2417   -1.1810   -4.7691 H   0  0  0  0  0  0  0  0  0  0  0  0
  1  2  2  0  0  0  0
  2  3  1  0  0  0  0
  2 22  1  0  0  0  0
  3  4  1  0  0  0  0
  3 32  1  0  0  0  0
  3 33  1  0  0  0  0
  4  5  1  0  0  0  0
  4 34  1  0  0  0  0
  4 35  1  0  0  0  0
  5  6  2  0  0  0  0
  5 21  1  0  0  0  0
  6  7  1  0  0  0  0
  6 36  1  0  0  0  0
  7  8  1  0  0  0  0
  7 16  1  0  0  0  0
  8  9  1  0  0  0  0
  8 37  1  0  0  0  0
  8 38  1  0  0  0  0
  9 10  1  0  0  0  0
  9 15  2  0  0  0  0
 10 11  2  0  0  0  0
 10 39  1  0  0  0  0
 11 12  1  0  0  0  0
 11 40  1  0  0  0  0
 12 13  1  0  0  0  0
 12 14  2  0  0  0  0
 14 15  1  0  0  0  0
 14 41  1  0  0  0  0
 15 42  1  0  0  0  0
 16 17  1  0  0  0  0
 16 21  2  0  0  0  0
 17 18  2  0  0  0  0
 17 43  1  0  0  0  0
 18 19  1  0  0  0  0
 18 44  1  0  0  0  0
 19 20  2  0  0  0  0
 19 45  1  0  0  0  0
 20 21  1  0  0  0  0
 20 46  1  0  0  0  0
 22 23  1  0  0  0  0
 22 47  1  0  0  0  0
 23 24  1  0  0  0  0
 23 31  2  0  0  0  0
 24 25  2  0  0  0  0
 24 48  1  0  0  0  0
 25 26  1  0  0  0  0
 25 49  1  0  0  0  0
 26 27  1  0  0  0  0
 26 30  2  0  0  0  0
 27 28  2  0  0  0  0
 27 29  1  0  0  0  0
 30 31  1  0  0  0  0
 30 50  1  0  0  0  0
 31 51  1  0  0  0  0
M  CHG  2  27   1  29  -1
M  END
$$$$
