CHEMBL3913757
 OpenBabel04072215373D

 57 60  0  0  0  0  0  0  0  0999 V2000
    7.4529   -4.1876   -5.4621 C   0  0  0  0  0  0  0  0  0  0  0  0
    7.5743   -2.9833   -4.6938 O   0  0  0  0  0  0  0  0  0  0  0  0
    6.7892   -1.9169   -5.0712 C   0  0  0  0  0  0  0  0  0  0  0  0
    5.8877   -1.9628   -6.1335 C   0  0  0  0  0  0  0  0  0  0  0  0
    5.1011   -0.8538   -6.4238 C   0  0  0  0  0  0  0  0  0  0  0  0
    4.1674   -0.7832   -7.4232 O   0  0  0  0  0  0  0  0  0  0  0  0
    4.0813   -1.8992   -8.3028 C   0  0  0  0  0  0  0  0  0  0  0  0
    5.2132    0.3068   -5.6460 C   0  0  0  0  0  0  0  0  0  0  0  0
    6.1040    0.4097   -4.5671 C   0  0  0  0  0  0  0  0  0  0  0  0
    6.0941    1.5301   -3.6887 N   0  0  0  0  0  0  0  0  0  0  0  0
    4.7462    2.2210   -3.4860 C   0  0  0  0  0  0  0  0  0  0  0  0
    3.5975    1.3684   -2.9251 C   0  0  0  0  0  0  0  0  0  0  0  0
    2.3738    2.2024   -2.7428 C   0  0  0  0  0  0  0  0  0  0  0  0
    1.4290    2.8667   -2.6091 N   0  0  0  0  0  0  0  0  0  0  0  0
    7.1118    2.5540   -3.5044 C   0  0  0  0  0  0  0  0  0  0  0  0
    7.2170    3.0128   -2.1938 C   0  0  0  0  0  0  0  0  0  0  0  0
    7.5548    4.3408   -1.9582 C   0  0  0  0  0  0  0  0  0  0  0  0
    7.9684    5.1683   -2.9630 C   0  0  0  0  0  0  0  0  0  0  0  0
    8.0277    6.4603   -2.6230 N   0  0  0  0  0  0  0  0  0  0  0  0
    8.7061    7.2710   -3.4401 C   0  0  0  0  0  0  0  0  0  0  0  0
    9.4182    6.7880   -4.5168 C   0  0  0  0  0  0  0  0  0  0  0  0
   10.6383    7.5595   -4.8215 C   0  0  0  0  0  0  0  0  0  0  0  0
   11.0639    8.3591   -5.9070 C   0  0  0  0  0  0  0  0  0  0  0  0
   12.2089    9.0259   -5.6662 N   0  0  0  0  0  0  0  0  0  0  0  0
   12.5333    8.6726   -4.4067 N   0  0  0  0  0  0  0  0  0  0  0  0
   13.8627    8.9137   -3.8598 C   0  0  0  0  0  0  0  0  0  0  0  0
   14.4695   10.3048   -4.0396 C   0  0  0  0  0  0  0  0  0  0  0  0
   13.8411   11.2751   -3.2070 O   0  0  0  0  0  0  0  0  0  0  0  0
   11.5702    7.8786   -3.8352 C   0  0  0  0  0  0  0  0  0  0  0  0
    9.1746    5.5070   -4.9890 N   0  0  0  0  0  0  0  0  0  0  0  0
    8.3472    4.6562   -4.2225 C   0  0  0  0  0  0  0  0  0  0  0  0
    7.7828    3.3311   -4.5000 C   0  0  0  0  0  0  0  0  0  0  0  0
    6.9018   -0.7304   -4.3034 C   0  0  0  0  0  0  0  0  0  0  0  0
    8.1155   -4.9468   -5.0334 H   0  0  0  0  0  0  0  0  0  0  0  0
    7.7667   -4.0292   -6.5009 H   0  0  0  0  0  0  0  0  0  0  0  0
    6.4334   -4.5911   -5.4232 H   0  0  0  0  0  0  0  0  0  0  0  0
    5.7876   -2.8616   -6.7272 H   0  0  0  0  0  0  0  0  0  0  0  0
    3.3578   -1.6536   -9.0851 H   0  0  0  0  0  0  0  0  0  0  0  0
    3.7159   -2.7873   -7.7756 H   0  0  0  0  0  0  0  0  0  0  0  0
    5.0426   -2.0972   -8.7892 H   0  0  0  0  0  0  0  0  0  0  0  0
    4.5641    1.1366   -5.9045 H   0  0  0  0  0  0  0  0  0  0  0  0
    4.4499    2.7218   -4.4193 H   0  0  0  0  0  0  0  0  0  0  0  0
    4.8526    3.0257   -2.7443 H   0  0  0  0  0  0  0  0  0  0  0  0
    3.8767    0.9436   -1.9421 H   0  0  0  0  0  0  0  0  0  0  0  0
    3.3532    0.5142   -3.5682 H   0  0  0  0  0  0  0  0  0  0  0  0
    6.8478    2.4100   -1.3690 H   0  0  0  0  0  0  0  0  0  0  0  0
    7.4288    4.7453   -0.9616 H   0  0  0  0  0  0  0  0  0  0  0  0
    8.7812    8.3018   -3.1096 H   0  0  0  0  0  0  0  0  0  0  0  0
   10.5797    8.5133   -6.8621 H   0  0  0  0  0  0  0  0  0  0  0  0
   14.5113    8.1788   -4.3497 H   0  0  0  0  0  0  0  0  0  0  0  0
   13.8205    8.6752   -2.7901 H   0  0  0  0  0  0  0  0  0  0  0  0
   14.4614   10.6518   -5.0770 H   0  0  0  0  0  0  0  0  0  0  0  0
   15.5196   10.2675   -3.7206 H   0  0  0  0  0  0  0  0  0  0  0  0
   13.1161   11.6633   -3.7293 H   0  0  0  0  0  0  0  0  0  0  0  0
   11.6441    7.5881   -2.7946 H   0  0  0  0  0  0  0  0  0  0  0  0
    7.8361    2.9600   -5.5243 H   0  0  0  0  0  0  0  0  0  0  0  0
    7.5803   -0.7330   -3.4522 H   0  0  0  0  0  0  0  0  0  0  0  0
  1  2  1  0  0  0  0
  1 34  1  0  0  0  0
  1 35  1  0  0  0  0
  1 36  1  0  0  0  0
  2  3  1  0  0  0  0
  3  4  1  0  0  0  0
  3 33  2  0  0  0  0
  4  5  2  0  0  0  0
  4 37  1  0  0  0  0
  5  6  1  0  0  0  0
  5  8  1  0  0  0  0
  6  7  1  0  0  0  0
  7 38  1  0  0  0  0
  7 39  1  0  0  0  0
  7 40  1  0  0  0  0
  8  9  2  0  0  0  0
  8 41  1  0  0  0  0
  9 10  1  0  0  0  0
  9 33  1  0  0  0  0
 10 11  1  0  0  0  0
 10 15  1  0  0  0  0
 11 12  1  0  0  0  0
 11 42  1  0  0  0  0
 11 43  1  0  0  0  0
 12 13  1  0  0  0  0
 12 44  1  0  0  0  0
 12 45  1  0  0  0  0
 13 14  3  0  0  0  0
 15 16  1  0  0  0  0
 15 32  2  0  0  0  0
 16 17  2  0  0  0  0
 16 46  1  0  0  0  0
 17 18  1  0  0  0  0
 17 47  1  0  0  0  0
 18 19  1  0  0  0  0
 18 31  2  0  0  0  0
 19 20  2  0  0  0  0
 20 21  1  0  0  0  0
 20 48  1  0  0  0  0
 21 22  1  0  0  0  0
 21 30  2  0  0  0  0
 22 23  1  0  0  0  0
 22 29  2  0  0  0  0
 23 24  2  0  0  0  0
 23 49  1  0  0  0  0
 24 25  1  0  0  0  0
 25 26  1  0  0  0  0
 25 29  1  0  0  0  0
 26 27  1  0  0  0  0
 26 50  1  0  0  0  0
 26 51  1  0  0  0  0
 27 28  1  0  0  0  0
 27 52  1  0  0  0  0
 27 53  1  0  0  0  0
 28 54  1  0  0  0  0
 29 55  1  0  0  0  0
 30 31  1  0  0  0  0
 31 32  1  0  0  0  0
 32 56  1  0  0  0  0
 33 57  1  0  0  0  0
M  END
$$$$
