CHEMBL270793
 OpenBabel04072215363D

 69 72  0  0  0  0  0  0  0  0999 V2000
    4.0771    1.1466   -0.4920 C   0  0  0  0  0  0  0  0  0  0  0  0
    2.9495    0.2896   -0.6998 O   0  0  0  0  0  0  0  0  0  0  0  0
    3.2853   -1.0499   -0.5925 C   0  0  0  0  0  0  0  0  0  0  0  0
    4.2883   -1.3776    0.2570 N   0  0  0  0  0  0  0  0  0  0  0  0
    4.6196   -2.6703    0.3570 C   0  0  0  0  0  0  0  0  0  0  0  0
    5.5807   -2.9970    1.2893 N   0  0  0  0  0  0  0  0  0  0  0  0
    6.4438   -4.1463    0.9935 C   0  0  0  0  0  0  0  0  0  0  0  0
    7.4542   -4.2743    2.1576 C   0  0  0  0  0  0  0  0  0  0  0  0
    8.5110   -5.3022    2.1450 N   0  0  0  0  0  0  0  0  0  0  0  0
    8.0751   -6.7170    2.1408 C   0  0  0  0  0  0  0  0  0  0  0  0
    7.6189   -7.3125    3.4928 C   0  0  0  0  0  0  0  0  0  0  0  0
    8.5299   -7.0193    4.5599 O   0  0  0  0  0  0  0  0  0  0  0  0
    8.7589   -5.6111    4.6428 C   0  0  0  0  0  0  0  0  0  0  0  0
    9.3847   -5.1013    3.3330 C   0  0  0  0  0  0  0  0  0  0  0  0
    4.0411   -3.6333   -0.3593 N   0  0  0  0  0  0  0  0  0  0  0  0
    3.0272   -3.2687   -1.1708 C   0  0  0  0  0  0  0  0  0  0  0  0
    2.5742   -1.9771   -1.3231 C   0  0  0  0  0  0  0  0  0  0  0  0
    1.4493   -1.7581   -2.2464 C   0  0  0  0  0  0  0  0  0  0  0  0
    1.0080   -2.7534   -2.8315 O   0  0  0  0  0  0  0  0  0  0  0  0
    0.9794   -0.4723   -2.4181 N   0  0  0  0  0  0  0  0  0  0  0  0
   -0.0665   -0.0940   -3.2991 C   0  0  0  0  0  0  0  0  0  0  0  0
   -0.9978   -1.0373   -3.7645 C   0  0  0  0  0  0  0  0  0  0  0  0
   -1.9749   -0.6855   -4.6934 C   0  0  0  0  0  0  0  0  0  0  0  0
   -2.9832   -1.6493   -5.2084 C   0  0  0  0  0  0  0  0  0  0  0  0
   -4.0709   -1.1745   -5.5311 O   0  0  0  0  0  0  0  0  0  0  0  0
   -2.6296   -2.9923   -5.2738 N   0  0  0  0  0  0  0  0  0  0  0  0
   -3.4714   -4.0181   -5.7752 C   0  0  0  0  0  0  0  0  0  0  0  0
   -4.5915   -3.7429   -6.5664 C   0  0  0  0  0  0  0  0  0  0  0  0
   -5.4523   -4.7563   -6.9789 C   0  0  0  0  0  0  0  0  0  0  0  0
   -5.2063   -6.0692   -6.6013 C   0  0  0  0  0  0  0  0  0  0  0  0
   -4.0760   -6.3836   -5.8321 C   0  0  0  0  0  0  0  0  0  0  0  0
   -3.8423   -7.8044   -5.3820 C   0  0  0  0  0  0  0  0  0  0  0  0
   -4.8225   -8.6676   -5.7759 F   0  0  0  0  0  0  0  0  0  0  0  0
   -2.6778   -8.3238   -5.8572 F   0  0  0  0  0  0  0  0  0  0  0  0
   -3.7782   -7.9158   -4.0261 F   0  0  0  0  0  0  0  0  0  0  0  0
   -3.1907   -5.3520   -5.4508 C   0  0  0  0  0  0  0  0  0  0  0  0
   -2.0554    0.6401   -5.1294 C   0  0  0  0  0  0  0  0  0  0  0  0
   -1.1682    1.5986   -4.6425 C   0  0  0  0  0  0  0  0  0  0  0  0
   -0.1697    1.2485   -3.7188 C   0  0  0  0  0  0  0  0  0  0  0  0
    0.7566    2.3256   -3.2229 C   0  0  0  0  0  0  0  0  0  0  0  0
    3.7259    2.1836   -0.5099 H   0  0  0  0  0  0  0  0  0  0  0  0
    4.7953    1.0199   -1.3092 H   0  0  0  0  0  0  0  0  0  0  0  0
    4.5610    0.9862    0.4771 H   0  0  0  0  0  0  0  0  0  0  0  0
    6.0329   -2.1456    1.5994 H   0  0  0  0  0  0  0  0  0  0  0  0
    6.9725   -3.9948    0.0438 H   0  0  0  0  0  0  0  0  0  0  0  0
    5.8451   -5.0600    0.9193 H   0  0  0  0  0  0  0  0  0  0  0  0
    6.8799   -4.3142    3.0873 H   0  0  0  0  0  0  0  0  0  0  0  0
    7.9839   -3.3102    2.1641 H   0  0  0  0  0  0  0  0  0  0  0  0
    8.9561   -7.2990    1.8318 H   0  0  0  0  0  0  0  0  0  0  0  0
    7.3197   -6.9075    1.3716 H   0  0  0  0  0  0  0  0  0  0  0  0
    7.5757   -8.4054    3.4138 H   0  0  0  0  0  0  0  0  0  0  0  0
    6.6200   -6.9607    3.7694 H   0  0  0  0  0  0  0  0  0  0  0  0
    9.4396   -5.4265    5.4791 H   0  0  0  0  0  0  0  0  0  0  0  0
    7.8146   -5.1077    4.8813 H   0  0  0  0  0  0  0  0  0  0  0  0
   10.3220   -5.6426    3.1548 H   0  0  0  0  0  0  0  0  0  0  0  0
    9.6535   -4.0434    3.4347 H   0  0  0  0  0  0  0  0  0  0  0  0
    2.5908   -4.0973   -1.7194 H   0  0  0  0  0  0  0  0  0  0  0  0
    1.5053    0.2764   -1.9770 H   0  0  0  0  0  0  0  0  0  0  0  0
   -1.0011   -2.0428   -3.3622 H   0  0  0  0  0  0  0  0  0  0  0  0
   -1.7480   -3.2863   -4.8697 H   0  0  0  0  0  0  0  0  0  0  0  0
   -4.8225   -2.7341   -6.8921 H   0  0  0  0  0  0  0  0  0  0  0  0
   -6.3224   -4.5058   -7.5804 H   0  0  0  0  0  0  0  0  0  0  0  0
   -5.9065   -6.8449   -6.9067 H   0  0  0  0  0  0  0  0  0  0  0  0
   -2.3157   -5.6014   -4.8526 H   0  0  0  0  0  0  0  0  0  0  0  0
   -2.8214    0.9319   -5.8465 H   0  0  0  0  0  0  0  0  0  0  0  0
   -1.2609    2.6221   -5.0011 H   0  0  0  0  0  0  0  0  0  0  0  0
    0.5879    3.2751   -3.7436 H   0  0  0  0  0  0  0  0  0  0  0  0
    1.8006    2.0457   -3.3940 H   0  0  0  0  0  0  0  0  0  0  0  0
    0.5925    2.4994   -2.1547 H   0  0  0  0  0  0  0  0  0  0  0  0
  1  2  1  0  0  0  0
  1 41  1  0  0  0  0
  1 42  1  0  0  0  0
  1 43  1  0  0  0  0
  2  3  1  0  0  0  0
  3  4  1  0  0  0  0
  3 17  2  0  0  0  0
  4  5  2  0  0  0  0
  5  6  1  0  0  0  0
  5 15  1  0  0  0  0
  6  7  1  0  0  0  0
  6 44  1  0  0  0  0
  7  8  1  0  0  0  0
  7 45  1  0  0  0  0
  7 46  1  0  0  0  0
  8  9  1  0  0  0  0
  8 47  1  0  0  0  0
  8 48  1  0  0  0  0
  9 10  1  0  0  0  0
  9 14  1  0  0  0  0
 10 11  1  0  0  0  0
 10 49  1  0  0  0  0
 10 50  1  0  0  0  0
 11 12  1  0  0  0  0
 11 51  1  0  0  0  0
 11 52  1  0  0  0  0
 12 13  1  0  0  0  0
 13 14  1  0  0  0  0
 13 53  1  0  0  0  0
 13 54  1  0  0  0  0
 14 55  1  0  0  0  0
 14 56  1  0  0  0  0
 15 16  2  0  0  0  0
 16 17  1  0  0  0  0
 16 57  1  0  0  0  0
 17 18  1  0  0  0  0
 18 19  2  0  0  0  0
 18 20  1  0  0  0  0
 20 21  1  0  0  0  0
 20 58  1  0  0  0  0
 21 22  1  0  0  0  0
 21 39  2  0  0  0  0
 22 23  2  0  0  0  0
 22 59  1  0  0  0  0
 23 24  1  0  0  0  0
 23 37  1  0  0  0  0
 24 25  2  0  0  0  0
 24 26  1  0  0  0  0
 26 27  1  0  0  0  0
 26 60  1  0  0  0  0
 27 28  1  0  0  0  0
 27 36  2  0  0  0  0
 28 29  2  0  0  0  0
 28 61  1  0  0  0  0
 29 30  1  0  0  0  0
 29 62  1  0  0  0  0
 30 31  2  0  0  0  0
 30 63  1  0  0  0  0
 31 32  1  0  0  0  0
 31 36  1  0  0  0  0
 32 33  1  0  0  0  0
 32 34  1  0  0  0  0
 32 35  1  0  0  0  0
 36 64  1  0  0  0  0
 37 38  2  0  0  0  0
 37 65  1  0  0  0  0
 38 39  1  0  0  0  0
 38 66  1  0  0  0  0
 39 40  1  0  0  0  0
 40 67  1  0  0  0  0
 40 68  1  0  0  0  0
 40 69  1  0  0  0  0
M  END
$$$$
