CHEMBL1940870
 OpenBabel04072215363D

 33 35  0  0  0  0  0  0  0  0999 V2000
   -1.4769    2.6933    0.0058 C   0  0  0  0  0  0  0  0  0  0  0  0
   -1.7228    1.2077    0.0062 C   0  0  0  0  0  0  0  0  0  0  0  0
   -3.0390    0.7188    0.0007 C   0  0  0  0  0  0  0  0  0  0  0  0
   -3.2782   -0.6508   -0.0011 C   0  0  0  0  0  0  0  0  0  0  0  0
   -2.2049   -1.5396   -0.0058 C   0  0  0  0  0  0  0  0  0  0  0  0
   -0.8829   -1.0619   -0.0052 C   0  0  0  0  0  0  0  0  0  0  0  0
    0.2221   -1.9349   -0.0238 C   0  0  0  0  0  0  0  0  0  0  0  0
    1.5332   -1.4432   -0.0255 C   0  0  0  0  0  0  0  0  0  0  0  0
    2.6369   -2.4257   -0.0370 C   0  0  0  0  0  0  0  0  0  0  0  0
    3.8154   -2.2337   -0.6528 C   0  0  0  0  0  0  0  0  0  0  0  0
    4.9156   -3.2517   -0.6243 C   0  0  0  0  0  0  0  0  0  0  0  0
    4.6508   -4.4299   -0.4073 O   0  0  0  0  0  0  0  0  0  0  0  0
    6.2489   -2.7300   -0.8954 C   0  0  0  0  0  0  0  0  0  0  0  0
    6.7852   -1.4913   -0.5804 C   0  0  0  0  0  0  0  0  0  0  0  0
    8.1196   -1.3304   -1.0636 C   0  0  0  0  0  0  0  0  0  0  0  0
    8.5421   -2.4568   -1.7197 C   0  0  0  0  0  0  0  0  0  0  0  0
   10.2256   -2.6071   -2.5257 Br  0  0  0  0  0  0  0  0  0  0  0  0
    7.3937   -3.7039   -1.7278 S   0  0  0  0  0  0  0  0  0  0  0  0
    1.6503   -0.0537    0.0413 C   0  0  0  0  0  0  0  0  0  0  0  0
    3.1466    0.7926    0.2031 Cl  0  0  0  0  0  0  0  0  0  0  0  0
    0.6141    0.8139    0.0410 N   0  0  0  0  0  0  0  0  0  0  0  0
   -0.6358    0.3269    0.0114 C   0  0  0  0  0  0  0  0  0  0  0  0
   -2.4144    3.2584   -0.0066 H   0  0  0  0  0  0  0  0  0  0  0  0
   -0.9051    2.9813   -0.8830 H   0  0  0  0  0  0  0  0  0  0  0  0
   -0.9231    2.9868    0.9038 H   0  0  0  0  0  0  0  0  0  0  0  0
   -3.8802    1.4083   -0.0010 H   0  0  0  0  0  0  0  0  0  0  0  0
   -4.2988   -1.0240   -0.0015 H   0  0  0  0  0  0  0  0  0  0  0  0
   -2.4083   -2.6079   -0.0099 H   0  0  0  0  0  0  0  0  0  0  0  0
    0.0476   -3.0104   -0.0445 H   0  0  0  0  0  0  0  0  0  0  0  0
    2.4474   -3.3682    0.4759 H   0  0  0  0  0  0  0  0  0  0  0  0
    4.0389   -1.3341   -1.2096 H   0  0  0  0  0  0  0  0  0  0  0  0
    6.2524   -0.7264   -0.0240 H   0  0  0  0  0  0  0  0  0  0  0  0
    8.7156   -0.4356   -0.9365 H   0  0  0  0  0  0  0  0  0  0  0  0
  1  2  1  0  0  0  0
  1 23  1  0  0  0  0
  1 24  1  0  0  0  0
  1 25  1  0  0  0  0
  2  3  1  0  0  0  0
  2 22  2  0  0  0  0
  3  4  2  0  0  0  0
  3 26  1  0  0  0  0
  4  5  1  0  0  0  0
  4 27  1  0  0  0  0
  5  6  2  0  0  0  0
  5 28  1  0  0  0  0
  6  7  1  0  0  0  0
  6 22  1  0  0  0  0
  7  8  2  0  0  0  0
  7 29  1  0  0  0  0
  8  9  1  0  0  0  0
  8 19  1  0  0  0  0
  9 10  2  0  0  0  0
  9 30  1  0  0  0  0
 10 11  1  0  0  0  0
 10 31  1  0  0  0  0
 11 12  2  0  0  0  0
 11 13  1  0  0  0  0
 13 14  2  0  0  0  0
 13 18  1  0  0  0  0
 14 15  1  0  0  0  0
 14 32  1  0  0  0  0
 15 16  2  0  0  0  0
 15 33  1  0  0  0  0
 16 17  1  0  0  0  0
 16 18  1  0  0  0  0
 19 20  1  0  0  0  0
 19 21  2  0  0  0  0
 21 22  1  0  0  0  0
M  END
$$$$
