CHEMBL1807467
 OpenBabel04072215363D

 65 69  0  0  0  0  0  0  0  0999 V2000
    2.4287   -0.5536   -0.0731 C   0  0  0  0  0  0  0  0  0  0  0  0
    1.0632   -0.0916   -0.3094 N   0  0  0  0  0  0  0  0  0  0  0  0
    0.1506   -1.2398   -0.5197 C   0  0  0  0  0  0  0  0  0  0  0  0
   -1.3231   -0.8040   -0.7236 C   0  0  0  0  0  0  0  0  0  0  0  0
   -1.7418    0.0114    0.4286 N   0  0  0  0  0  0  0  0  0  0  0  0
   -3.0238   -0.0145    0.9327 C   0  0  0  0  0  0  0  0  0  0  0  0
   -3.2552    0.3219    2.2776 C   0  0  0  0  0  0  0  0  0  0  0  0
   -4.5266    0.2573    2.8569 C   0  0  0  0  0  0  0  0  0  0  0  0
   -5.6095   -0.1535    2.0831 C   0  0  0  0  0  0  0  0  0  0  0  0
   -6.9888   -0.2210    2.6165 C   0  0  0  0  0  0  0  0  0  0  0  0
   -7.9519   -0.1240    1.8719 O   0  0  0  0  0  0  0  0  0  0  0  0
   -7.1546   -0.4092    4.0364 N   0  0  0  0  0  0  0  0  0  0  0  0
   -8.4087   -0.5253    4.6287 C   0  0  0  0  0  0  0  0  0  0  0  0
   -9.6241   -0.7366    4.0263 C   0  0  0  0  0  0  0  0  0  0  0  0
  -10.5850   -0.7796    5.0708 C   0  0  0  0  0  0  0  0  0  0  0  0
  -12.0270   -0.9869    4.9329 C   0  0  0  0  0  0  0  0  0  0  0  0
  -12.6823   -0.6788    3.7293 C   0  0  0  0  0  0  0  0  0  0  0  0
  -14.0472   -0.9312    3.5777 C   0  0  0  0  0  0  0  0  0  0  0  0
  -14.7670   -1.5029    4.6243 C   0  0  0  0  0  0  0  0  0  0  0  0
  -14.1296   -1.7902    5.8301 C   0  0  0  0  0  0  0  0  0  0  0  0
  -14.8714   -2.3867    6.8846 N   0  0  0  0  0  0  0  0  0  0  0  0
  -15.0663   -4.0619    6.9073 S   0  0  0  0  0  0  0  0  0  0  0  0
  -15.8383   -4.3661    8.0938 O   0  0  0  0  0  0  0  0  0  0  0  0
  -15.4912   -4.5223    5.5984 O   0  0  0  0  0  0  0  0  0  0  0  0
  -13.4179   -4.6710    7.1895 C   0  0  0  0  0  0  0  0  0  0  0  0
  -12.9692   -4.8579    8.5031 C   0  0  0  0  0  0  0  0  0  0  0  0
  -11.6991   -5.3898    8.7304 C   0  0  0  0  0  0  0  0  0  0  0  0
  -10.8873   -5.7384    7.6501 C   0  0  0  0  0  0  0  0  0  0  0  0
  -11.3479   -5.5582    6.3445 C   0  0  0  0  0  0  0  0  0  0  0  0
  -10.3371   -5.9905    5.0207 Cl  0  0  0  0  0  0  0  0  0  0  0  0
  -12.6160   -5.0332    6.1037 C   0  0  0  0  0  0  0  0  0  0  0  0
  -12.7689   -1.5290    5.9918 C   0  0  0  0  0  0  0  0  0  0  0  0
   -9.9851   -0.6310    6.2629 N   0  0  0  0  0  0  0  0  0  0  0  0
   -8.6831   -0.4842    5.9697 N   0  0  0  0  0  0  0  0  0  0  0  0
   -5.4090   -0.4817    0.7374 C   0  0  0  0  0  0  0  0  0  0  0  0
   -4.1294   -0.4206    0.1773 C   0  0  0  0  0  0  0  0  0  0  0  0
   -0.8772    1.1864    0.6485 C   0  0  0  0  0  0  0  0  0  0  0  0
    0.5832    0.7168    0.8344 C   0  0  0  0  0  0  0  0  0  0  0  0
    2.7947   -1.1210   -0.9355 H   0  0  0  0  0  0  0  0  0  0  0  0
    2.5058   -1.1885    0.8169 H   0  0  0  0  0  0  0  0  0  0  0  0
    3.1034    0.3002    0.0534 H   0  0  0  0  0  0  0  0  0  0  0  0
    0.1940   -1.9158    0.3461 H   0  0  0  0  0  0  0  0  0  0  0  0
    0.4696   -1.8114   -1.3988 H   0  0  0  0  0  0  0  0  0  0  0  0
   -1.9302   -1.7119   -0.8174 H   0  0  0  0  0  0  0  0  0  0  0  0
   -1.4253   -0.2290   -1.6527 H   0  0  0  0  0  0  0  0  0  0  0  0
   -2.4164    0.6094    2.9077 H   0  0  0  0  0  0  0  0  0  0  0  0
   -4.6269    0.5583    3.8936 H   0  0  0  0  0  0  0  0  0  0  0  0
   -6.3427   -0.4695    4.6309 H   0  0  0  0  0  0  0  0  0  0  0  0
   -9.8266   -0.8721    2.9739 H   0  0  0  0  0  0  0  0  0  0  0  0
  -12.1461   -0.2334    2.8944 H   0  0  0  0  0  0  0  0  0  0  0  0
  -14.5469   -0.6854    2.6434 H   0  0  0  0  0  0  0  0  0  0  0  0
  -15.8273   -1.7088    4.4991 H   0  0  0  0  0  0  0  0  0  0  0  0
  -14.7813   -1.9879    7.8138 H   0  0  0  0  0  0  0  0  0  0  0  0
  -13.6058   -4.6125    9.3513 H   0  0  0  0  0  0  0  0  0  0  0  0
  -11.3475   -5.5476    9.7484 H   0  0  0  0  0  0  0  0  0  0  0  0
   -9.9030   -6.1642    7.8323 H   0  0  0  0  0  0  0  0  0  0  0  0
  -12.9753   -4.9116    5.0845 H   0  0  0  0  0  0  0  0  0  0  0  0
  -12.2745   -1.7679    6.9291 H   0  0  0  0  0  0  0  0  0  0  0  0
   -8.0415   -0.3338    6.7387 H   0  0  0  0  0  0  0  0  0  0  0  0
   -6.2454   -0.7873    0.1091 H   0  0  0  0  0  0  0  0  0  0  0  0
   -4.0172   -0.6741   -0.8746 H   0  0  0  0  0  0  0  0  0  0  0  0
   -1.1705    1.7742    1.5245 H   0  0  0  0  0  0  0  0  0  0  0  0
   -0.9471    1.8577   -0.2177 H   0  0  0  0  0  0  0  0  0  0  0  0
    0.6469    0.1341    1.7640 H   0  0  0  0  0  0  0  0  0  0  0  0
    1.2192    1.6013    0.9550 H   0  0  0  0  0  0  0  0  0  0  0  0
  1  2  1  0  0  0  0
  1 39  1  0  0  0  0
  1 40  1  0  0  0  0
  1 41  1  0  0  0  0
  2  3  1  0  0  0  0
  2 38  1  0  0  0  0
  3  4  1  0  0  0  0
  3 42  1  0  0  0  0
  3 43  1  0  0  0  0
  4  5  1  0  0  0  0
  4 44  1  0  0  0  0
  4 45  1  0  0  0  0
  5  6  1  0  0  0  0
  5 37  1  0  0  0  0
  6  7  1  0  0  0  0
  6 36  2  0  0  0  0
  7  8  2  0  0  0  0
  7 46  1  0  0  0  0
  8  9  1  0  0  0  0
  8 47  1  0  0  0  0
  9 10  1  0  0  0  0
  9 35  2  0  0  0  0
 10 11  2  0  0  0  0
 10 12  1  0  0  0  0
 12 13  1  0  0  0  0
 12 48  1  0  0  0  0
 13 14  2  0  0  0  0
 13 34  1  0  0  0  0
 14 15  1  0  0  0  0
 14 49  1  0  0  0  0
 15 16  1  0  0  0  0
 15 33  2  0  0  0  0
 16 17  1  0  0  0  0
 16 32  2  0  0  0  0
 17 18  2  0  0  0  0
 17 50  1  0  0  0  0
 18 19  1  0  0  0  0
 18 51  1  0  0  0  0
 19 20  2  0  0  0  0
 19 52  1  0  0  0  0
 20 21  1  0  0  0  0
 20 32  1  0  0  0  0
 21 22  1  0  0  0  0
 21 53  1  0  0  0  0
 22 23  2  0  0  0  0
 22 24  2  0  0  0  0
 22 25  1  0  0  0  0
 25 26  1  0  0  0  0
 25 31  2  0  0  0  0
 26 27  2  0  0  0  0
 26 54  1  0  0  0  0
 27 28  1  0  0  0  0
 27 55  1  0  0  0  0
 28 29  2  0  0  0  0
 28 56  1  0  0  0  0
 29 30  1  0  0  0  0
 29 31  1  0  0  0  0
 31 57  1  0  0  0  0
 32 58  1  0  0  0  0
 33 34  1  0  0  0  0
 34 59  1  0  0  0  0
 35 36  1  0  0  0  0
 35 60  1  0  0  0  0
 36 61  1  0  0  0  0
 37 38  1  0  0  0  0
 37 62  1  0  0  0  0
 37 63  1  0  0  0  0
 38 64  1  0  0  0  0
 38 65  1  0  0  0  0
M  END
$$$$
