CHEMBL1242026
 OpenBabel04072215363D

 38 40  0  0  0  0  0  0  0  0999 V2000
   -1.7609   -1.4957   -0.9019 C   0  0  0  0  0  0  0  0  0  0  0  0
   -0.5140   -0.6993   -0.6519 C   0  0  0  0  0  0  0  0  0  0  0  0
   -0.5889    0.5419   -0.0131 C   0  0  0  0  0  0  0  0  0  0  0  0
    0.5603    1.3149    0.1722 C   0  0  0  0  0  0  0  0  0  0  0  0
    1.8172    0.8436   -0.2250 C   0  0  0  0  0  0  0  0  0  0  0  0
    3.0307    1.6416   -0.0139 C   0  0  0  0  0  0  0  0  0  0  0  0
    4.0241    1.5948   -0.9223 N   0  0  0  0  0  0  0  0  0  0  0  0
    4.9419    2.4726   -0.4696 N   0  0  0  0  0  0  0  0  0  0  0  0
    6.1650    2.7107   -1.2292 C   0  0  0  0  0  0  0  0  0  0  0  0
    7.0060    1.4386   -1.3487 C   0  0  0  0  0  0  0  0  0  0  0  0
    5.8693    3.3022   -2.6080 C   0  0  0  0  0  0  0  0  0  0  0  0
    4.5948    3.0560    0.7171 C   0  0  0  0  0  0  0  0  0  0  0  0
    5.3084    3.9636    1.4073 N   0  0  0  0  0  0  0  0  0  0  0  0
    4.6807    4.3261    2.5342 C   0  0  0  0  0  0  0  0  0  0  0  0
    3.5026    3.8778    3.0056 N   0  0  0  0  0  0  0  0  0  0  0  0
    2.8244    2.9599    2.2870 C   0  0  0  0  0  0  0  0  0  0  0  0
    1.6368    2.5132    2.8499 N   0  0  0  0  0  0  0  0  0  0  0  0
    3.3618    2.5224    1.0666 C   0  0  0  0  0  0  0  0  0  0  0  0
    1.8917   -0.3988   -0.8723 C   0  0  0  0  0  0  0  0  0  0  0  0
    0.7345   -1.1505   -1.0882 C   0  0  0  0  0  0  0  0  0  0  0  0
    0.8035   -2.3467   -1.7465 O   0  0  0  0  0  0  0  0  0  0  0  0
   -2.6386   -1.0124   -0.4593 H   0  0  0  0  0  0  0  0  0  0  0  0
   -1.6752   -2.4937   -0.4611 H   0  0  0  0  0  0  0  0  0  0  0  0
   -1.9386   -1.5855   -1.9783 H   0  0  0  0  0  0  0  0  0  0  0  0
   -1.5458    0.9296    0.3289 H   0  0  0  0  0  0  0  0  0  0  0  0
    0.4476    2.3014    0.6157 H   0  0  0  0  0  0  0  0  0  0  0  0
    6.7521    3.4481   -0.6692 H   0  0  0  0  0  0  0  0  0  0  0  0
    6.4671    0.6451   -1.8781 H   0  0  0  0  0  0  0  0  0  0  0  0
    7.2739    1.0556   -0.3581 H   0  0  0  0  0  0  0  0  0  0  0  0
    7.9338    1.6369   -1.8960 H   0  0  0  0  0  0  0  0  0  0  0  0
    5.2890    2.6114   -3.2296 H   0  0  0  0  0  0  0  0  0  0  0  0
    6.7994    3.5302   -3.1374 H   0  0  0  0  0  0  0  0  0  0  0  0
    5.2972    4.2323   -2.5198 H   0  0  0  0  0  0  0  0  0  0  0  0
    5.1836    5.0686    3.1466 H   0  0  0  0  0  0  0  0  0  0  0  0
    1.5755    2.8078    3.8183 H   0  0  0  0  0  0  0  0  0  0  0  0
    1.4296    1.5367    2.6804 H   0  0  0  0  0  0  0  0  0  0  0  0
    2.8565   -0.7646   -1.2148 H   0  0  0  0  0  0  0  0  0  0  0  0
    1.7084   -2.4634   -2.0801 H   0  0  0  0  0  0  0  0  0  0  0  0
  1  2  1  0  0  0  0
  1 22  1  0  0  0  0
  1 23  1  0  0  0  0
  1 24  1  0  0  0  0
  2  3  1  0  0  0  0
  2 20  2  0  0  0  0
  3  4  2  0  0  0  0
  3 25  1  0  0  0  0
  4  5  1  0  0  0  0
  4 26  1  0  0  0  0
  5  6  1  0  0  0  0
  5 19  2  0  0  0  0
  6  7  2  0  0  0  0
  6 18  1  0  0  0  0
  7  8  1  0  0  0  0
  8  9  1  0  0  0  0
  8 12  1  0  0  0  0
  9 10  1  0  0  0  0
  9 11  1  0  0  0  0
  9 27  1  0  0  0  0
 10 28  1  0  0  0  0
 10 29  1  0  0  0  0
 10 30  1  0  0  0  0
 11 31  1  0  0  0  0
 11 32  1  0  0  0  0
 11 33  1  0  0  0  0
 12 13  1  0  0  0  0
 12 18  2  0  0  0  0
 13 14  2  0  0  0  0
 14 15  1  0  0  0  0
 14 34  1  0  0  0  0
 15 16  2  0  0  0  0
 16 17  1  0  0  0  0
 16 18  1  0  0  0  0
 17 35  1  0  0  0  0
 17 36  1  0  0  0  0
 19 20  1  0  0  0  0
 19 37  1  0  0  0  0
 20 21  1  0  0  0  0
 21 38  1  0  0  0  0
M  END
$$$$
