CHEMBL477563
 OpenBabel04072215383D

 51 54  0  0  0  0  0  0  0  0999 V2000
    2.0166    1.4951   -3.7041 C   0  0  0  0  0  0  0  0  0  0  0  0
    3.2665    1.1877   -2.9613 C   0  0  0  0  0  0  0  0  0  0  0  0
    4.1239    2.0729   -2.4941 N   0  0  0  0  0  0  0  0  0  0  0  0
    5.1140    1.3484   -1.8665 C   0  0  0  0  0  0  0  0  0  0  0  0
    6.2598    1.7980   -1.1844 C   0  0  0  0  0  0  0  0  0  0  0  0
    7.1453    0.8775   -0.5893 C   0  0  0  0  0  0  0  0  0  0  0  0
    8.2877    1.2644    0.1598 N   0  0  0  0  0  0  0  0  0  0  0  0
    8.2676    2.5534    0.8494 C   0  0  0  0  0  0  0  0  0  0  0  0
    9.5271    0.5809    0.1548 C   0  0  0  0  0  0  0  0  0  0  0  0
   10.3796    0.5745    1.2382 C   0  0  0  0  0  0  0  0  0  0  0  0
   11.5219   -0.1876    1.1261 C   0  0  0  0  0  0  0  0  0  0  0  0
   11.8580   -0.8835    0.0260 N   0  0  0  0  0  0  0  0  0  0  0  0
   10.9936   -0.8256   -0.9924 C   0  0  0  0  0  0  0  0  0  0  0  0
   11.2938   -1.6031   -2.1202 N   0  0  0  0  0  0  0  0  0  0  0  0
   10.3890   -2.0868   -3.0833 C   0  0  0  0  0  0  0  0  0  0  0  0
    9.2471   -1.3671   -3.4703 C   0  0  0  0  0  0  0  0  0  0  0  0
    8.2653   -1.9227   -4.2907 C   0  0  0  0  0  0  0  0  0  0  0  0
    8.4287   -3.2089   -4.7821 C   0  0  0  0  0  0  0  0  0  0  0  0
    9.5957   -3.9111   -4.4721 C   0  0  0  0  0  0  0  0  0  0  0  0
    9.7758   -5.5720   -5.0635 S   0  0  0  0  0  0  0  0  0  0  0  0
   10.4473   -5.3082   -6.5639 N   0  0  0  0  0  0  0  0  0  0  0  0
   10.7784   -6.2358   -4.2655 O   0  0  0  0  0  0  0  0  0  0  0  0
    8.4558   -6.1188   -5.2755 O   0  0  0  0  0  0  0  0  0  0  0  0
   10.5772   -3.3587   -3.6361 C   0  0  0  0  0  0  0  0  0  0  0  0
    9.8556   -0.1232   -0.9400 N   0  0  0  0  0  0  0  0  0  0  0  0
    6.8495   -0.4922   -0.7430 C   0  0  0  0  0  0  0  0  0  0  0  0
    5.7171   -0.9695   -1.4213 C   0  0  0  0  0  0  0  0  0  0  0  0
    4.8590   -0.0151   -1.9653 C   0  0  0  0  0  0  0  0  0  0  0  0
    3.6759   -0.0940   -2.6617 N   0  0  0  0  0  0  0  0  0  0  0  0
    2.9650   -1.3002   -3.0120 C   0  0  0  0  0  0  0  0  0  0  0  0
    1.8959    2.5763   -3.8227 H   0  0  0  0  0  0  0  0  0  0  0  0
    1.1415    1.1156   -3.1670 H   0  0  0  0  0  0  0  0  0  0  0  0
    2.0376    1.0462   -4.7019 H   0  0  0  0  0  0  0  0  0  0  0  0
    6.4351    2.8663   -1.1590 H   0  0  0  0  0  0  0  0  0  0  0  0
    7.3004    3.0638    0.8065 H   0  0  0  0  0  0  0  0  0  0  0  0
    9.0212    3.2322    0.4332 H   0  0  0  0  0  0  0  0  0  0  0  0
    8.4639    2.4232    1.9194 H   0  0  0  0  0  0  0  0  0  0  0  0
   10.1622    1.0881    2.1625 H   0  0  0  0  0  0  0  0  0  0  0  0
   12.2134   -0.2765    1.9593 H   0  0  0  0  0  0  0  0  0  0  0  0
   12.0942   -2.1803   -1.9056 H   0  0  0  0  0  0  0  0  0  0  0  0
    9.0788   -0.3560   -3.1051 H   0  0  0  0  0  0  0  0  0  0  0  0
    7.3671   -1.3499   -4.5083 H   0  0  0  0  0  0  0  0  0  0  0  0
    7.6457   -3.6577   -5.3877 H   0  0  0  0  0  0  0  0  0  0  0  0
   11.4559   -5.1928   -6.5815 H   0  0  0  0  0  0  0  0  0  0  0  0
    9.8601   -4.8499   -7.2539 H   0  0  0  0  0  0  0  0  0  0  0  0
   11.4584   -3.9408   -3.3772 H   0  0  0  0  0  0  0  0  0  0  0  0
    7.5173   -1.2336   -0.3065 H   0  0  0  0  0  0  0  0  0  0  0  0
    5.5336   -2.0345   -1.5007 H   0  0  0  0  0  0  0  0  0  0  0  0
    3.5037   -2.1779   -2.6514 H   0  0  0  0  0  0  0  0  0  0  0  0
    2.8808   -1.3470   -4.1004 H   0  0  0  0  0  0  0  0  0  0  0  0
    1.9743   -1.2663   -2.5511 H   0  0  0  0  0  0  0  0  0  0  0  0
  1  2  1  0  0  0  0
  1 31  1  0  0  0  0
  1 32  1  0  0  0  0
  1 33  1  0  0  0  0
  2  3  2  0  0  0  0
  2 29  1  0  0  0  0
  3  4  1  0  0  0  0
  4  5  1  0  0  0  0
  4 28  2  0  0  0  0
  5  6  2  0  0  0  0
  5 34  1  0  0  0  0
  6  7  1  0  0  0  0
  6 26  1  0  0  0  0
  7  8  1  0  0  0  0
  7  9  1  0  0  0  0
  8 35  1  0  0  0  0
  8 36  1  0  0  0  0
  8 37  1  0  0  0  0
  9 10  1  0  0  0  0
  9 25  2  0  0  0  0
 10 11  2  0  0  0  0
 10 38  1  0  0  0  0
 11 12  1  0  0  0  0
 11 39  1  0  0  0  0
 12 13  2  0  0  0  0
 13 14  1  0  0  0  0
 13 25  1  0  0  0  0
 14 15  1  0  0  0  0
 14 40  1  0  0  0  0
 15 16  1  0  0  0  0
 15 24  2  0  0  0  0
 16 17  2  0  0  0  0
 16 41  1  0  0  0  0
 17 18  1  0  0  0  0
 17 42  1  0  0  0  0
 18 19  2  0  0  0  0
 18 43  1  0  0  0  0
 19 20  1  0  0  0  0
 19 24  1  0  0  0  0
 20 21  1  0  0  0  0
 20 22  2  0  0  0  0
 20 23  2  0  0  0  0
 21 44  1  0  0  0  0
 21 45  1  0  0  0  0
 24 46  1  0  0  0  0
 26 27  2  0  0  0  0
 26 47  1  0  0  0  0
 27 28  1  0  0  0  0
 27 48  1  0  0  0  0
 28 29  1  0  0  0  0
 29 30  1  0  0  0  0
 30 49  1  0  0  0  0
 30 50  1  0  0  0  0
 30 51  1  0  0  0  0
M  END
$$$$
