CHEMBL462349
 OpenBabel04072215383D

 59 63  0  0  0  0  0  0  0  0999 V2000
    9.9442    8.0894   -1.7003 C   0  0  0  0  0  0  0  0  0  0  0  0
    8.8863    8.5445   -2.5444 O   0  0  0  0  0  0  0  0  0  0  0  0
    8.0981    7.5521   -3.0665 C   0  0  0  0  0  0  0  0  0  0  0  0
    8.5946    6.2723   -3.3435 C   0  0  0  0  0  0  0  0  0  0  0  0
    7.7764    5.2267   -3.7415 C   0  0  0  0  0  0  0  0  0  0  0  0
    8.3550    4.0236   -3.9040 N   0  0  0  0  0  0  0  0  0  0  0  0
    7.5752    2.9855   -4.2657 C   0  0  0  0  0  0  0  0  0  0  0  0
    6.2196    3.0900   -4.4714 C   0  0  0  0  0  0  0  0  0  0  0  0
    5.6160    4.3363   -4.2976 C   0  0  0  0  0  0  0  0  0  0  0  0
    4.2817    4.3609   -4.6489 O   0  0  0  0  0  0  0  0  0  0  0  0
    3.3286    4.9576   -3.8543 C   0  0  0  0  0  0  0  0  0  0  0  0
    2.1695    5.3492   -4.5319 C   0  0  0  0  0  0  0  0  0  0  0  0
    1.1212    6.0107   -3.8722 C   0  0  0  0  0  0  0  0  0  0  0  0
    1.2404    6.2725   -2.4926 C   0  0  0  0  0  0  0  0  0  0  0  0
    0.4393    6.8914   -1.4769 C   0  0  0  0  0  0  0  0  0  0  0  0
   -0.8095    7.4706   -1.6689 N   0  0  0  0  0  0  0  0  0  0  0  0
   -1.5523    8.0249   -0.6395 C   0  0  0  0  0  0  0  0  0  0  0  0
   -1.2375    8.0861    0.5455 O   0  0  0  0  0  0  0  0  0  0  0  0
   -2.8756    8.6199   -0.9942 C   0  0  0  0  0  0  0  0  0  0  0  0
   -3.6553    8.1936   -2.0745 C   0  0  0  0  0  0  0  0  0  0  0  0
   -4.9232    8.7571   -2.2881 C   0  0  0  0  0  0  0  0  0  0  0  0
   -5.4306    9.7447   -1.4257 C   0  0  0  0  0  0  0  0  0  0  0  0
   -6.8045   10.3417   -1.6207 C   0  0  0  0  0  0  0  0  0  0  0  0
   -7.4600    9.8521   -2.7095 F   0  0  0  0  0  0  0  0  0  0  0  0
   -7.6261   10.1181   -0.5580 F   0  0  0  0  0  0  0  0  0  0  0  0
   -6.7650   11.6930   -1.7854 F   0  0  0  0  0  0  0  0  0  0  0  0
   -4.6441   10.1666   -0.3466 C   0  0  0  0  0  0  0  0  0  0  0  0
   -3.3830    9.6083   -0.1346 C   0  0  0  0  0  0  0  0  0  0  0  0
    1.0549    6.8333   -0.2977 N   0  0  0  0  0  0  0  0  0  0  0  0
    2.2065    6.1998   -0.5296 N   0  0  0  0  0  0  0  0  0  0  0  0
    3.0849    5.9131    0.5785 C   0  0  0  0  0  0  0  0  0  0  0  0
    2.3899    5.8322   -1.8352 C   0  0  0  0  0  0  0  0  0  0  0  0
    3.4431    5.1572   -2.4769 C   0  0  0  0  0  0  0  0  0  0  0  0
    6.4002    5.4611   -3.9378 C   0  0  0  0  0  0  0  0  0  0  0  0
    5.9246    6.7827   -3.7638 C   0  0  0  0  0  0  0  0  0  0  0  0
    6.7534    7.8183   -3.3225 C   0  0  0  0  0  0  0  0  0  0  0  0
    6.0881    8.9919   -3.0928 O   0  0  0  0  0  0  0  0  0  0  0  0
    6.7877   10.1822   -3.4326 C   0  0  0  0  0  0  0  0  0  0  0  0
   10.2653    8.9276   -1.0759 H   0  0  0  0  0  0  0  0  0  0  0  0
   10.8017    7.7692   -2.3011 H   0  0  0  0  0  0  0  0  0  0  0  0
    9.6166    7.2849   -1.0306 H   0  0  0  0  0  0  0  0  0  0  0  0
    9.6525    6.0521   -3.2309 H   0  0  0  0  0  0  0  0  0  0  0  0
    8.0982    2.0419   -4.3945 H   0  0  0  0  0  0  0  0  0  0  0  0
    5.6421    2.2244   -4.7729 H   0  0  0  0  0  0  0  0  0  0  0  0
    2.0829    5.1469   -5.5975 H   0  0  0  0  0  0  0  0  0  0  0  0
    0.2374    6.3078   -4.4274 H   0  0  0  0  0  0  0  0  0  0  0  0
   -1.1391    7.5106   -2.6183 H   0  0  0  0  0  0  0  0  0  0  0  0
   -3.3239    7.3969   -2.7330 H   0  0  0  0  0  0  0  0  0  0  0  0
   -5.5288    8.4034   -3.1227 H   0  0  0  0  0  0  0  0  0  0  0  0
   -5.0155   10.9200    0.3474 H   0  0  0  0  0  0  0  0  0  0  0  0
   -2.7969    9.9354    0.7245 H   0  0  0  0  0  0  0  0  0  0  0  0
    2.6899    6.3724    1.4888 H   0  0  0  0  0  0  0  0  0  0  0  0
    4.0743    6.3194    0.3563 H   0  0  0  0  0  0  0  0  0  0  0  0
    3.1290    4.8280    0.6997 H   0  0  0  0  0  0  0  0  0  0  0  0
    4.3189    4.8415   -1.9207 H   0  0  0  0  0  0  0  0  0  0  0  0
    4.8811    7.0259   -3.9422 H   0  0  0  0  0  0  0  0  0  0  0  0
    6.0376   10.9327   -3.7035 H   0  0  0  0  0  0  0  0  0  0  0  0
    7.4490   10.0521   -4.2955 H   0  0  0  0  0  0  0  0  0  0  0  0
    7.3345   10.5619   -2.5650 H   0  0  0  0  0  0  0  0  0  0  0  0
  1  2  1  0  0  0  0
  1 39  1  0  0  0  0
  1 40  1  0  0  0  0
  1 41  1  0  0  0  0
  2  3  1  0  0  0  0
  3  4  1  0  0  0  0
  3 36  2  0  0  0  0
  4  5  2  0  0  0  0
  4 42  1  0  0  0  0
  5  6  1  0  0  0  0
  5 34  1  0  0  0  0
  6  7  2  0  0  0  0
  7  8  1  0  0  0  0
  7 43  1  0  0  0  0
  8  9  2  0  0  0  0
  8 44  1  0  0  0  0
  9 10  1  0  0  0  0
  9 34  1  0  0  0  0
 10 11  1  0  0  0  0
 11 12  1  0  0  0  0
 11 33  2  0  0  0  0
 12 13  2  0  0  0  0
 12 45  1  0  0  0  0
 13 14  1  0  0  0  0
 13 46  1  0  0  0  0
 14 15  1  0  0  0  0
 14 32  2  0  0  0  0
 15 16  1  0  0  0  0
 15 29  2  0  0  0  0
 16 17  1  0  0  0  0
 16 47  1  0  0  0  0
 17 18  2  0  0  0  0
 17 19  1  0  0  0  0
 19 20  1  0  0  0  0
 19 28  2  0  0  0  0
 20 21  2  0  0  0  0
 20 48  1  0  0  0  0
 21 22  1  0  0  0  0
 21 49  1  0  0  0  0
 22 23  1  0  0  0  0
 22 27  2  0  0  0  0
 23 24  1  0  0  0  0
 23 25  1  0  0  0  0
 23 26  1  0  0  0  0
 27 28  1  0  0  0  0
 27 50  1  0  0  0  0
 28 51  1  0  0  0  0
 29 30  1  0  0  0  0
 30 31  1  0  0  0  0
 30 32  1  0  0  0  0
 31 52  1  0  0  0  0
 31 53  1  0  0  0  0
 31 54  1  0  0  0  0
 32 33  1  0  0  0  0
 33 55  1  0  0  0  0
 34 35  2  0  0  0  0
 35 36  1  0  0  0  0
 35 56  1  0  0  0  0
 36 37  1  0  0  0  0
 37 38  1  0  0  0  0
 38 57  1  0  0  0  0
 38 58  1  0  0  0  0
 38 59  1  0  0  0  0
M  END
$$$$
