CHEMBL415047
 OpenBabel04072215383D

 69 74  0  0  0  0  0  0  0  0999 V2000
   -6.7513    6.0384   11.8329 C   0  0  0  0  0  0  0  0  0  0  0  0
   -7.0821    5.7029   10.4111 C   0  0  0  0  0  0  0  0  0  0  0  0
   -6.4413    4.6471    9.7691 C   0  0  0  0  0  0  0  0  0  0  0  0
   -6.7559    4.3183    8.4509 C   0  0  0  0  0  0  0  0  0  0  0  0
   -7.7149    5.0461    7.7448 C   0  0  0  0  0  0  0  0  0  0  0  0
   -8.0834    4.7615    6.3977 N   0  0  0  0  0  0  0  0  0  0  0  0
   -7.5021    3.8052    5.6045 C   0  0  0  0  0  0  0  0  0  0  0  0
   -6.5248    3.1140    5.8623 O   0  0  0  0  0  0  0  0  0  0  0  0
   -8.1839    3.6637    4.4245 N   0  0  0  0  0  0  0  0  0  0  0  0
   -7.8279    2.5430    3.5843 C   0  0  0  0  0  0  0  0  0  0  0  0
   -8.5763    2.6695    2.3201 C   0  0  0  0  0  0  0  0  0  0  0  0
   -8.0575    3.1819    1.1605 C   0  0  0  0  0  0  0  0  0  0  0  0
   -9.0156    3.1398    0.1343 C   0  0  0  0  0  0  0  0  0  0  0  0
  -10.3008    2.7977    0.5386 C   0  0  0  0  0  0  0  0  0  0  0  0
  -11.5443    2.8973   -0.3657 C   0  0  0  0  0  0  0  0  0  0  0  0
  -12.6454    2.1282   -0.3243 N   0  0  0  0  0  0  0  0  0  0  0  0
  -13.1365    2.1529   -1.6000 N   0  0  0  0  0  0  0  0  0  0  0  0
  -12.4676    3.0225   -2.4375 C   0  0  0  0  0  0  0  0  0  0  0  0
  -11.5475    3.6337   -1.5803 C   0  0  0  0  0  0  0  0  0  0  0  0
  -10.4361    4.2044   -2.3673 C   0  0  0  0  0  0  0  0  0  0  0  0
  -10.3964    2.9612   -3.2669 C   0  0  0  0  0  0  0  0  0  0  0  0
   -9.7389    1.7312   -3.0254 C   0  0  0  0  0  0  0  0  0  0  0  0
  -10.1500    0.5866   -3.7427 C   0  0  0  0  0  0  0  0  0  0  0  0
   -9.9819   -0.8330   -3.2222 C   0  0  0  0  0  0  0  0  0  0  0  0
   -9.4383   -1.7747   -4.2054 N   0  0  0  0  0  0  0  0  0  0  0  0
   -7.9962   -1.5492   -4.3901 C   0  0  0  0  0  0  0  0  0  0  0  0
   -7.3929   -2.5457   -5.4007 C   0  0  0  0  0  0  0  0  0  0  0  0
   -7.5973   -3.9692   -5.0663 N   0  0  0  0  0  0  0  0  0  0  0  0
   -6.7521   -4.3886   -3.9512 C   0  0  0  0  0  0  0  0  0  0  0  0
   -9.0289   -4.1958   -4.7809 C   0  0  0  0  0  0  0  0  0  0  0  0
   -9.6744   -3.1793   -3.8021 C   0  0  0  0  0  0  0  0  0  0  0  0
  -11.0271    0.7924   -4.8045 C   0  0  0  0  0  0  0  0  0  0  0  0
  -11.9076    1.8676   -4.7330 C   0  0  0  0  0  0  0  0  0  0  0  0
  -11.7133    2.8021   -3.7427 C   0  0  0  0  0  0  0  0  0  0  0  0
  -10.2188    2.1833    2.1389 S   0  0  0  0  0  0  0  0  0  0  0  0
   -8.3449    6.1212    8.3767 C   0  0  0  0  0  0  0  0  0  0  0  0
   -8.0389    6.4416    9.7075 C   0  0  0  0  0  0  0  0  0  0  0  0
   -5.9756    5.3724   12.2264 H   0  0  0  0  0  0  0  0  0  0  0  0
   -7.6394    5.9250   12.4616 H   0  0  0  0  0  0  0  0  0  0  0  0
   -6.3782    7.0646   11.9053 H   0  0  0  0  0  0  0  0  0  0  0  0
   -5.6869    4.0559   10.2866 H   0  0  0  0  0  0  0  0  0  0  0  0
   -6.2216    3.4847    8.0080 H   0  0  0  0  0  0  0  0  0  0  0  0
   -8.7736    5.3435    5.9856 H   0  0  0  0  0  0  0  0  0  0  0  0
   -9.1455    3.9617    4.3884 H   0  0  0  0  0  0  0  0  0  0  0  0
   -8.0172    1.6059    4.1097 H   0  0  0  0  0  0  0  0  0  0  0  0
   -6.7416    2.6037    3.3943 H   0  0  0  0  0  0  0  0  0  0  0  0
   -7.0378    3.5361    1.0400 H   0  0  0  0  0  0  0  0  0  0  0  0
   -8.6923    3.3850   -0.8562 H   0  0  0  0  0  0  0  0  0  0  0  0
  -13.8728    1.5077   -1.8410 H   0  0  0  0  0  0  0  0  0  0  0  0
   -9.5332    4.5469   -1.8921 H   0  0  0  0  0  0  0  0  0  0  0  0
  -10.8019    5.0668   -2.9421 H   0  0  0  0  0  0  0  0  0  0  0  0
   -9.1289    1.5921   -2.1347 H   0  0  0  0  0  0  0  0  0  0  0  0
  -11.0039   -1.1550   -2.9612 H   0  0  0  0  0  0  0  0  0  0  0  0
   -9.4249   -0.8596   -2.2766 H   0  0  0  0  0  0  0  0  0  0  0  0
   -7.4701   -1.6269   -3.4296 H   0  0  0  0  0  0  0  0  0  0  0  0
   -7.8269   -0.5364   -4.7704 H   0  0  0  0  0  0  0  0  0  0  0  0
   -6.3243   -2.3347   -5.5247 H   0  0  0  0  0  0  0  0  0  0  0  0
   -7.8473   -2.3603   -6.3834 H   0  0  0  0  0  0  0  0  0  0  0  0
   -5.6965   -4.2071   -4.1831 H   0  0  0  0  0  0  0  0  0  0  0  0
   -6.8518   -5.4671   -3.7865 H   0  0  0  0  0  0  0  0  0  0  0  0
   -6.9854   -3.8789   -3.0112 H   0  0  0  0  0  0  0  0  0  0  0  0
   -9.1821   -5.2174   -4.4092 H   0  0  0  0  0  0  0  0  0  0  0  0
   -9.5709   -4.1495   -5.7352 H   0  0  0  0  0  0  0  0  0  0  0  0
   -9.2933   -3.3622   -2.7888 H   0  0  0  0  0  0  0  0  0  0  0  0
  -10.7536   -3.3799   -3.7786 H   0  0  0  0  0  0  0  0  0  0  0  0
  -11.0968    0.0589   -5.6020 H   0  0  0  0  0  0  0  0  0  0  0  0
  -12.5647    2.0886   -5.5657 H   0  0  0  0  0  0  0  0  0  0  0  0
   -9.0997    6.6998    7.8619 H   0  0  0  0  0  0  0  0  0  0  0  0
   -8.5543    7.2700   10.1836 H   0  0  0  0  0  0  0  0  0  0  0  0
  1  2  1  0  0  0  0
  1 38  1  0  0  0  0
  1 39  1  0  0  0  0
  1 40  1  0  0  0  0
  2  3  1  0  0  0  0
  2 37  2  0  0  0  0
  3  4  2  0  0  0  0
  3 41  1  0  0  0  0
  4  5  1  0  0  0  0
  4 42  1  0  0  0  0
  5  6  1  0  0  0  0
  5 36  2  0  0  0  0
  6  7  1  0  0  0  0
  6 43  1  0  0  0  0
  7  8  2  0  0  0  0
  7  9  1  0  0  0  0
  9 10  1  0  0  0  0
  9 44  1  0  0  0  0
 10 11  1  0  0  0  0
 10 45  1  0  0  0  0
 10 46  1  0  0  0  0
 11 12  2  0  0  0  0
 11 35  1  0  0  0  0
 12 13  1  0  0  0  0
 12 47  1  0  0  0  0
 13 14  2  0  0  0  0
 13 48  1  0  0  0  0
 14 15  1  0  0  0  0
 14 35  1  0  0  0  0
 15 16  2  0  0  0  0
 15 19  1  0  0  0  0
 16 17  1  0  0  0  0
 17 18  1  0  0  0  0
 17 49  1  0  0  0  0
 18 19  2  0  0  0  0
 18 34  1  0  0  0  0
 19 20  1  0  0  0  0
 20 21  1  0  0  0  0
 20 50  1  0  0  0  0
 20 51  1  0  0  0  0
 21 22  1  0  0  0  0
 21 34  2  0  0  0  0
 22 23  2  0  0  0  0
 22 52  1  0  0  0  0
 23 24  1  0  0  0  0
 23 32  1  0  0  0  0
 24 25  1  0  0  0  0
 24 53  1  0  0  0  0
 24 54  1  0  0  0  0
 25 26  1  0  0  0  0
 25 31  1  0  0  0  0
 26 27  1  0  0  0  0
 26 55  1  0  0  0  0
 26 56  1  0  0  0  0
 27 28  1  0  0  0  0
 27 57  1  0  0  0  0
 27 58  1  0  0  0  0
 28 29  1  0  0  0  0
 28 30  1  0  0  0  0
 29 59  1  0  0  0  0
 29 60  1  0  0  0  0
 29 61  1  0  0  0  0
 30 31  1  0  0  0  0
 30 62  1  0  0  0  0
 30 63  1  0  0  0  0
 31 64  1  0  0  0  0
 31 65  1  0  0  0  0
 32 33  2  0  0  0  0
 32 66  1  0  0  0  0
 33 34  1  0  0  0  0
 33 67  1  0  0  0  0
 36 37  1  0  0  0  0
 36 68  1  0  0  0  0
 37 69  1  0  0  0  0
M  END
$$$$
