CHEMBL3780547
 OpenBabel04072215373D

 65 69  0  0  0  0  0  0  0  0999 V2000
   11.1130   -1.5856    3.2813 C   0  0  0  0  0  0  0  0  0  0  0  0
   10.5313   -0.4446    2.6631 O   0  0  0  0  0  0  0  0  0  0  0  0
    9.3107   -0.0479    3.1354 C   0  0  0  0  0  0  0  0  0  0  0  0
    8.5711   -0.6813    4.1336 C   0  0  0  0  0  0  0  0  0  0  0  0
    7.3374   -0.1589    4.5411 C   0  0  0  0  0  0  0  0  0  0  0  0
    6.8320    1.0140    3.9664 C   0  0  0  0  0  0  0  0  0  0  0  0
    5.4783    1.5804    4.3242 C   0  0  0  0  0  0  0  0  0  0  0  0
    4.9817    1.3754    5.7341 C   0  0  0  0  0  0  0  0  0  0  0  0
    4.1397    0.3323    5.8658 N   0  0  0  0  0  0  0  0  0  0  0  0
    3.4730    0.1430    7.0261 N   0  0  0  0  0  0  0  0  0  0  0  0
    3.5995    0.9969    8.0673 C   0  0  0  0  0  0  0  0  0  0  0  0
    2.7383    0.8322    9.1862 N   0  0  0  0  0  0  0  0  0  0  0  0
    1.7072   -0.1360    9.3103 C   0  0  0  0  0  0  0  0  0  0  0  0
    1.3504   -0.5978   10.5774 C   0  0  0  0  0  0  0  0  0  0  0  0
    0.3936   -1.6083   10.7319 C   0  0  0  0  0  0  0  0  0  0  0  0
   -0.2588   -2.1687    9.6323 C   0  0  0  0  0  0  0  0  0  0  0  0
   -1.1574   -3.2597    9.7238 N   0  0  0  0  0  0  0  0  0  0  0  0
   -1.5876   -3.8505   10.8990 C   0  0  0  0  0  0  0  0  0  0  0  0
   -1.3500   -3.4176   12.0213 O   0  0  0  0  0  0  0  0  0  0  0  0
   -2.2988   -5.0231   10.6755 N   0  0  0  0  0  0  0  0  0  0  0  0
   -2.8163   -5.7416   11.7835 C   0  0  0  0  0  0  0  0  0  0  0  0
   -3.4801   -5.0784   12.8218 C   0  0  0  0  0  0  0  0  0  0  0  0
   -3.8741   -5.7687   13.9655 C   0  0  0  0  0  0  0  0  0  0  0  0
   -3.6208   -7.1347   14.0733 C   0  0  0  0  0  0  0  0  0  0  0  0
   -3.0077   -7.8167   13.0191 C   0  0  0  0  0  0  0  0  0  0  0  0
   -2.6922   -9.1498   13.0322 O   0  0  0  0  0  0  0  0  0  0  0  0
   -3.5062   -9.9600   13.8739 C   0  0  0  0  0  0  0  0  0  0  0  0
   -2.6131   -7.1198   11.8699 C   0  0  0  0  0  0  0  0  0  0  0  0
    0.0175   -1.6436    8.3710 C   0  0  0  0  0  0  0  0  0  0  0  0
    0.9680   -0.6207    8.2215 C   0  0  0  0  0  0  0  0  0  0  0  0
    4.5355    2.0598    8.0115 C   0  0  0  0  0  0  0  0  0  0  0  0
    4.7776    2.9705    9.0763 C   0  0  0  0  0  0  0  0  0  0  0  0
    5.7349    3.9822    8.9769 C   0  0  0  0  0  0  0  0  0  0  0  0
    6.4656    4.1265    7.8079 C   0  0  0  0  0  0  0  0  0  0  0  0
    6.2327    3.2672    6.7335 C   0  0  0  0  0  0  0  0  0  0  0  0
    5.2710    2.2339    6.8095 C   0  0  0  0  0  0  0  0  0  0  0  0
    7.5642    1.6209    2.9361 C   0  0  0  0  0  0  0  0  0  0  0  0
    8.7927    1.0967    2.5300 C   0  0  0  0  0  0  0  0  0  0  0  0
   12.1205   -1.7112    2.8736 H   0  0  0  0  0  0  0  0  0  0  0  0
   10.5391   -2.4877    3.0454 H   0  0  0  0  0  0  0  0  0  0  0  0
   11.2111   -1.4505    4.3637 H   0  0  0  0  0  0  0  0  0  0  0  0
    8.9178   -1.5910    4.6122 H   0  0  0  0  0  0  0  0  0  0  0  0
    6.7742   -0.6933    5.3047 H   0  0  0  0  0  0  0  0  0  0  0  0
    4.7506    1.1254    3.6375 H   0  0  0  0  0  0  0  0  0  0  0  0
    5.4472    2.6542    4.1001 H   0  0  0  0  0  0  0  0  0  0  0  0
    3.2762    0.9002   10.0446 H   0  0  0  0  0  0  0  0  0  0  0  0
    1.8306   -0.2076   11.4708 H   0  0  0  0  0  0  0  0  0  0  0  0
    0.2045   -1.9443   11.7459 H   0  0  0  0  0  0  0  0  0  0  0  0
   -1.5842   -3.5839    8.8679 H   0  0  0  0  0  0  0  0  0  0  0  0
   -1.9697   -5.5768    9.8976 H   0  0  0  0  0  0  0  0  0  0  0  0
   -3.6674   -4.0085   12.7625 H   0  0  0  0  0  0  0  0  0  0  0  0
   -4.3490   -5.2314   14.7821 H   0  0  0  0  0  0  0  0  0  0  0  0
   -3.8885   -7.6318   14.9994 H   0  0  0  0  0  0  0  0  0  0  0  0
   -3.2677  -11.0062   13.6613 H   0  0  0  0  0  0  0  0  0  0  0  0
   -4.5688   -9.8067   13.6561 H   0  0  0  0  0  0  0  0  0  0  0  0
   -3.2911   -9.7808   14.9323 H   0  0  0  0  0  0  0  0  0  0  0  0
   -2.0910   -7.6581   11.0848 H   0  0  0  0  0  0  0  0  0  0  0  0
   -0.4770   -2.0195    7.4788 H   0  0  0  0  0  0  0  0  0  0  0  0
    1.1381   -0.2312    7.2208 H   0  0  0  0  0  0  0  0  0  0  0  0
    4.2188    2.8964   10.0076 H   0  0  0  0  0  0  0  0  0  0  0  0
    5.9103    4.6551    9.8127 H   0  0  0  0  0  0  0  0  0  0  0  0
    7.2201    4.9060    7.7246 H   0  0  0  0  0  0  0  0  0  0  0  0
    6.8263    3.4103    5.8352 H   0  0  0  0  0  0  0  0  0  0  0  0
    7.1764    2.5020    2.4288 H   0  0  0  0  0  0  0  0  0  0  0  0
    9.3462    1.5811    1.7294 H   0  0  0  0  0  0  0  0  0  0  0  0
  1  2  1  0  0  0  0
  1 39  1  0  0  0  0
  1 40  1  0  0  0  0
  1 41  1  0  0  0  0
  2  3  1  0  0  0  0
  3  4  1  0  0  0  0
  3 38  2  0  0  0  0
  4  5  2  0  0  0  0
  4 42  1  0  0  0  0
  5  6  1  0  0  0  0
  5 43  1  0  0  0  0
  6  7  1  0  0  0  0
  6 37  2  0  0  0  0
  7  8  1  0  0  0  0
  7 44  1  0  0  0  0
  7 45  1  0  0  0  0
  8  9  1  0  0  0  0
  8 36  2  0  0  0  0
  9 10  2  0  0  0  0
 10 11  1  0  0  0  0
 11 12  1  0  0  0  0
 11 31  2  0  0  0  0
 12 13  1  0  0  0  0
 12 46  1  0  0  0  0
 13 14  1  0  0  0  0
 13 30  2  0  0  0  0
 14 15  2  0  0  0  0
 14 47  1  0  0  0  0
 15 16  1  0  0  0  0
 15 48  1  0  0  0  0
 16 17  1  0  0  0  0
 16 29  2  0  0  0  0
 17 18  1  0  0  0  0
 17 49  1  0  0  0  0
 18 19  2  0  0  0  0
 18 20  1  0  0  0  0
 20 21  1  0  0  0  0
 20 50  1  0  0  0  0
 21 22  1  0  0  0  0
 21 28  2  0  0  0  0
 22 23  2  0  0  0  0
 22 51  1  0  0  0  0
 23 24  1  0  0  0  0
 23 52  1  0  0  0  0
 24 25  2  0  0  0  0
 24 53  1  0  0  0  0
 25 26  1  0  0  0  0
 25 28  1  0  0  0  0
 26 27  1  0  0  0  0
 27 54  1  0  0  0  0
 27 55  1  0  0  0  0
 27 56  1  0  0  0  0
 28 57  1  0  0  0  0
 29 30  1  0  0  0  0
 29 58  1  0  0  0  0
 30 59  1  0  0  0  0
 31 32  1  0  0  0  0
 31 36  1  0  0  0  0
 32 33  2  0  0  0  0
 32 60  1  0  0  0  0
 33 34  1  0  0  0  0
 33 61  1  0  0  0  0
 34 35  2  0  0  0  0
 34 62  1  0  0  0  0
 35 36  1  0  0  0  0
 35 63  1  0  0  0  0
 37 38  1  0  0  0  0
 37 64  1  0  0  0  0
 38 65  1  0  0  0  0
M  END
$$$$
