CHEMBL3981207
 OpenBabel04072215373D

 51 54  0  0  0  0  0  0  0  0999 V2000
    1.1540    0.1017    0.6304 C   0  0  0  0  0  0  0  0  0  0  0  0
    2.3257    0.0164    0.3535 C   0  0  0  0  0  0  0  0  0  0  0  0
    3.7631   -0.0729   -0.0298 C   0  0  0  0  0  0  0  0  0  0  0  0
    4.3187    0.9875   -0.9345 N   0  0  0  0  0  0  0  0  0  0  0  0
    3.4163    1.7836   -1.6948 C   0  0  0  0  0  0  0  0  0  0  0  0
    2.1840    1.3192   -2.1745 C   0  0  0  0  0  0  0  0  0  0  0  0
    1.2931    2.1548   -2.8533 C   0  0  0  0  0  0  0  0  0  0  0  0
    1.6492    3.4428   -3.1900 C   0  0  0  0  0  0  0  0  0  0  0  0
    0.7873    4.1952   -3.8953 N   0  0  0  0  0  0  0  0  0  0  0  0
    1.2211    5.4283   -4.2373 C   0  0  0  0  0  0  0  0  0  0  0  0
    2.4723    5.9067   -3.8893 C   0  0  0  0  0  0  0  0  0  0  0  0
    2.8998    7.2508   -4.2389 C   0  0  0  0  0  0  0  0  0  0  0  0
    2.2152    8.3198   -4.8457 C   0  0  0  0  0  0  0  0  0  0  0  0
    2.9598    9.4246   -4.9489 N   0  0  0  0  0  0  0  0  0  0  0  0
    4.1341    9.0612   -4.3834 N   0  0  0  0  0  0  0  0  0  0  0  0
    5.1918   10.0250   -4.2370 C   0  0  0  0  0  0  0  0  0  0  0  0
    4.1587    7.7651   -3.9669 C   0  0  0  0  0  0  0  0  0  0  0  0
    3.3389    5.1528   -3.1652 N   0  0  0  0  0  0  0  0  0  0  0  0
    2.9242    3.9218   -2.8092 C   0  0  0  0  0  0  0  0  0  0  0  0
    3.7580    3.1025   -2.0495 C   0  0  0  0  0  0  0  0  0  0  0  0
    5.7700    1.0128   -1.0928 C   0  0  0  0  0  0  0  0  0  0  0  0
    6.3846    1.1162   -2.4015 C   0  0  0  0  0  0  0  0  0  0  0  0
    5.4029    0.9657   -3.8374 Cl  0  0  0  0  0  0  0  0  0  0  0  0
    7.7827    1.3074   -2.5499 C   0  0  0  0  0  0  0  0  0  0  0  0
    8.5193    1.5918   -3.6726 O   0  0  0  0  0  0  0  0  0  0  0  0
    8.1844    1.0205   -4.9261 C   0  0  0  0  0  0  0  0  0  0  0  0
    8.6035    1.3239   -1.4178 C   0  0  0  0  0  0  0  0  0  0  0  0
    8.0737    1.1666   -0.1455 C   0  0  0  0  0  0  0  0  0  0  0  0
    8.8336    1.1558    0.9995 O   0  0  0  0  0  0  0  0  0  0  0  0
   10.2248    1.4252    0.9114 C   0  0  0  0  0  0  0  0  0  0  0  0
    6.6709    1.0397    0.0215 C   0  0  0  0  0  0  0  0  0  0  0  0
    6.1424    1.0835    1.6877 Cl  0  0  0  0  0  0  0  0  0  0  0  0
    0.1126    0.2124    0.7971 H   0  0  0  0  0  0  0  0  0  0  0  0
    3.9889   -1.0639   -0.4456 H   0  0  0  0  0  0  0  0  0  0  0  0
    4.2387   -0.0527    0.9429 H   0  0  0  0  0  0  0  0  0  0  0  0
    1.8766    0.2863   -2.0454 H   0  0  0  0  0  0  0  0  0  0  0  0
    0.3148    1.7802   -3.1421 H   0  0  0  0  0  0  0  0  0  0  0  0
    0.5104    6.0166   -4.8056 H   0  0  0  0  0  0  0  0  0  0  0  0
    1.2009    8.3594   -5.2087 H   0  0  0  0  0  0  0  0  0  0  0  0
    4.8797   10.9822   -4.6575 H   0  0  0  0  0  0  0  0  0  0  0  0
    6.0745    9.6536   -4.7665 H   0  0  0  0  0  0  0  0  0  0  0  0
    5.4024   10.1368   -3.1693 H   0  0  0  0  0  0  0  0  0  0  0  0
    5.0257    7.3299   -3.5056 H   0  0  0  0  0  0  0  0  0  0  0  0
    4.7200    3.5113   -1.7489 H   0  0  0  0  0  0  0  0  0  0  0  0
    9.0968    0.9995   -5.5321 H   0  0  0  0  0  0  0  0  0  0  0  0
    7.4729    1.6585   -5.4576 H   0  0  0  0  0  0  0  0  0  0  0  0
    7.8335   -0.0111   -4.8335 H   0  0  0  0  0  0  0  0  0  0  0  0
    9.6702    1.4723   -1.5689 H   0  0  0  0  0  0  0  0  0  0  0  0
   10.6125    1.4810    1.9338 H   0  0  0  0  0  0  0  0  0  0  0  0
   10.4187    2.3901    0.4328 H   0  0  0  0  0  0  0  0  0  0  0  0
   10.7475    0.6117    0.3994 H   0  0  0  0  0  0  0  0  0  0  0  0
  1  2  3  0  0  0  0
  1 33  1  0  0  0  0
  2  3  1  0  0  0  0
  3  4  1  0  0  0  0
  3 34  1  0  0  0  0
  3 35  1  0  0  0  0
  4  5  1  0  0  0  0
  4 21  1  0  0  0  0
  5  6  1  0  0  0  0
  5 20  2  0  0  0  0
  6  7  2  0  0  0  0
  6 36  1  0  0  0  0
  7  8  1  0  0  0  0
  7 37  1  0  0  0  0
  8  9  1  0  0  0  0
  8 19  2  0  0  0  0
  9 10  2  0  0  0  0
 10 11  1  0  0  0  0
 10 38  1  0  0  0  0
 11 12  1  0  0  0  0
 11 18  2  0  0  0  0
 12 13  1  0  0  0  0
 12 17  2  0  0  0  0
 13 14  2  0  0  0  0
 13 39  1  0  0  0  0
 14 15  1  0  0  0  0
 15 16  1  0  0  0  0
 15 17  1  0  0  0  0
 16 40  1  0  0  0  0
 16 41  1  0  0  0  0
 16 42  1  0  0  0  0
 17 43  1  0  0  0  0
 18 19  1  0  0  0  0
 19 20  1  0  0  0  0
 20 44  1  0  0  0  0
 21 22  1  0  0  0  0
 21 31  2  0  0  0  0
 22 23  1  0  0  0  0
 22 24  2  0  0  0  0
 24 25  1  0  0  0  0
 24 27  1  0  0  0  0
 25 26  1  0  0  0  0
 26 45  1  0  0  0  0
 26 46  1  0  0  0  0
 26 47  1  0  0  0  0
 27 28  2  0  0  0  0
 27 48  1  0  0  0  0
 28 29  1  0  0  0  0
 28 31  1  0  0  0  0
 29 30  1  0  0  0  0
 30 49  1  0  0  0  0
 30 50  1  0  0  0  0
 30 51  1  0  0  0  0
 31 32  1  0  0  0  0
M  END
$$$$
