CHEMBL234203
 OpenBabel04072215363D

 41 43  0  0  0  0  0  0  0  0999 V2000
    2.3549    1.0044   -0.1591 O   0  0  0  0  0  0  0  0  0  0  0  0
    2.1744   -0.2077   -0.2283 C   0  0  0  0  0  0  0  0  0  0  0  0
    1.1427   -0.8152   -0.9323 N   0  0  0  0  0  0  0  0  0  0  0  0
    0.0793   -0.1916   -1.6183 C   0  0  0  0  0  0  0  0  0  0  0  0
   -0.0757    1.1937   -1.7017 C   0  0  0  0  0  0  0  0  0  0  0  0
   -1.1865    1.7582   -2.3378 C   0  0  0  0  0  0  0  0  0  0  0  0
   -2.1721    0.9474   -2.9098 C   0  0  0  0  0  0  0  0  0  0  0  0
   -3.4049    1.5545   -3.5344 C   0  0  0  0  0  0  0  0  0  0  0  0
   -3.4593    2.9122   -3.4246 F   0  0  0  0  0  0  0  0  0  0  0  0
   -3.5106    1.2838   -4.8642 F   0  0  0  0  0  0  0  0  0  0  0  0
   -4.5540    1.0930   -2.9659 F   0  0  0  0  0  0  0  0  0  0  0  0
   -1.9980   -0.4436   -2.8675 C   0  0  0  0  0  0  0  0  0  0  0  0
   -0.8841   -1.0065   -2.2257 C   0  0  0  0  0  0  0  0  0  0  0  0
    3.0420   -1.1711    0.4424 C   0  0  0  0  0  0  0  0  0  0  0  0
    2.8427   -2.4821    0.3373 N   0  0  0  0  0  0  0  0  0  0  0  0
    3.7936   -3.0740    1.1220 C   0  0  0  0  0  0  0  0  0  0  0  0
    4.5885   -2.1278    1.7178 C   0  0  0  0  0  0  0  0  0  0  0  0
    4.1269   -0.9165    1.2642 N   0  0  0  0  0  0  0  0  0  0  0  0
    4.6673    0.3679    1.6917 C   0  0  0  0  0  0  0  0  0  0  0  0
    6.1530    0.5371    1.3471 C   0  0  0  0  0  0  0  0  0  0  0  0
    6.8484    1.7920    1.8326 C   0  0  0  0  0  0  0  0  0  0  0  0
    6.2077    2.8536    2.4754 C   0  0  0  0  0  0  0  0  0  0  0  0
    6.9700    3.9336    2.9082 C   0  0  0  0  0  0  0  0  0  0  0  0
    8.3052    4.0328    2.7426 N   0  0  0  0  0  0  0  0  0  0  0  0
    8.9071    3.0109    2.1030 C   0  0  0  0  0  0  0  0  0  0  0  0
    8.2338    1.8925    1.6377 C   0  0  0  0  0  0  0  0  0  0  0  0
    1.1581   -1.8321   -0.8871 H   0  0  0  0  0  0  0  0  0  0  0  0
    0.6434    1.8786   -1.2657 H   0  0  0  0  0  0  0  0  0  0  0  0
   -1.2782    2.8433   -2.3651 H   0  0  0  0  0  0  0  0  0  0  0  0
   -2.7416   -1.0982   -3.3218 H   0  0  0  0  0  0  0  0  0  0  0  0
   -0.7929   -2.0903   -2.1982 H   0  0  0  0  0  0  0  0  0  0  0  0
    3.8545   -4.1500    1.2285 H   0  0  0  0  0  0  0  0  0  0  0  0
    5.4249   -2.2147    2.3977 H   0  0  0  0  0  0  0  0  0  0  0  0
    4.5067    0.4195    2.7755 H   0  0  0  0  0  0  0  0  0  0  0  0
    4.0921    1.1773    1.2435 H   0  0  0  0  0  0  0  0  0  0  0  0
    6.2742    0.4773    0.2579 H   0  0  0  0  0  0  0  0  0  0  0  0
    6.7086   -0.3080    1.7747 H   0  0  0  0  0  0  0  0  0  0  0  0
    5.1385    2.8699    2.6541 H   0  0  0  0  0  0  0  0  0  0  0  0
    6.5098    4.7739    3.4213 H   0  0  0  0  0  0  0  0  0  0  0  0
    9.9823    3.1110    1.9759 H   0  0  0  0  0  0  0  0  0  0  0  0
    8.7875    1.1086    1.1299 H   0  0  0  0  0  0  0  0  0  0  0  0
  1  2  2  0  0  0  0
  2  3  1  0  0  0  0
  2 14  1  0  0  0  0
  3  4  1  0  0  0  0
  3 27  1  0  0  0  0
  4  5  1  0  0  0  0
  4 13  2  0  0  0  0
  5  6  2  0  0  0  0
  5 28  1  0  0  0  0
  6  7  1  0  0  0  0
  6 29  1  0  0  0  0
  7  8  1  0  0  0  0
  7 12  2  0  0  0  0
  8  9  1  0  0  0  0
  8 10  1  0  0  0  0
  8 11  1  0  0  0  0
 12 13  1  0  0  0  0
 12 30  1  0  0  0  0
 13 31  1  0  0  0  0
 14 15  2  0  0  0  0
 14 18  1  0  0  0  0
 15 16  1  0  0  0  0
 16 17  2  0  0  0  0
 16 32  1  0  0  0  0
 17 18  1  0  0  0  0
 17 33  1  0  0  0  0
 18 19  1  0  0  0  0
 19 20  1  0  0  0  0
 19 34  1  0  0  0  0
 19 35  1  0  0  0  0
 20 21  1  0  0  0  0
 20 36  1  0  0  0  0
 20 37  1  0  0  0  0
 21 22  1  0  0  0  0
 21 26  2  0  0  0  0
 22 23  2  0  0  0  0
 22 38  1  0  0  0  0
 23 24  1  0  0  0  0
 23 39  1  0  0  0  0
 24 25  2  0  0  0  0
 25 26  1  0  0  0  0
 25 40  1  0  0  0  0
 26 41  1  0  0  0  0
M  END
$$$$
