CHEMBL3901787
 OpenBabel04072215373D

 65 69  0  0  1  0  0  0  0  0999 V2000
    3.4069    1.4237    5.1511 C   0  0  0  0  0  0  0  0  0  0  0  0
    4.2187    2.0403    4.1627 O   0  0  0  0  0  0  0  0  0  0  0  0
    4.1250    1.5800    2.8828 C   0  0  0  0  0  0  0  0  0  0  0  0
    5.3496    1.5992    2.2006 C   0  0  0  0  0  0  0  0  0  0  0  0
    5.4546    1.1835    0.8498 C   0  0  0  0  0  0  0  0  0  0  0  0
    6.6314    1.1319    0.0915 C   0  0  0  0  0  0  0  0  0  0  0  0
    7.8668    1.4949    0.6875 N   0  0  0  0  0  0  0  0  0  0  0  0
    9.0101    1.8167   -0.0723 C   0  0  0  0  0  0  0  0  0  0  0  0
    8.9086    2.7284   -1.1325 C   0  0  0  0  0  0  0  0  0  0  0  0
    9.9913    2.9782   -1.9709 C   0  0  0  0  0  0  0  0  0  0  0  0
   11.2011    2.3226   -1.7503 C   0  0  0  0  0  0  0  0  0  0  0  0
   12.4888    2.6294   -2.8587 Cl  0  0  0  0  0  0  0  0  0  0  0  0
   11.3280    1.4404   -0.6698 C   0  0  0  0  0  0  0  0  0  0  0  0
   12.8011    0.5994   -0.3354 Cl  0  0  0  0  0  0  0  0  0  0  0  0
   10.2364    1.1946    0.1720 C   0  0  0  0  0  0  0  0  0  0  0  0
    6.6359    0.7566   -1.2055 N   0  0  0  0  0  0  0  0  0  0  0  0
    5.4650    0.4243   -1.7494 C   0  0  0  0  0  0  0  0  0  0  0  0
    4.2909    0.4333   -1.1220 N   0  0  0  0  0  0  0  0  0  0  0  0
    4.3062    0.8135    0.1578 C   0  0  0  0  0  0  0  0  0  0  0  0
    3.1039    0.8329    0.8283 C   0  0  0  0  0  0  0  0  0  0  0  0
    2.9812    1.1642    2.1916 C   0  0  0  0  0  0  0  0  0  0  0  0
    1.7582    1.1060    2.8286 O   0  0  0  0  0  0  0  0  0  0  0  0
    0.8593    0.1827    2.1918 C   0  0  0  0  0  0  0  0  0  0  0  0
   -0.2778   -0.2903    3.0791 C   0  0  3  0  0  0  0  0  0  0  0  0
   -1.2842    0.8215    3.4070 C   0  0  0  0  0  0  0  0  0  0  0  0
   -2.4365    0.2380    4.1923 N   0  0  0  0  0  0  0  0  0  0  0  0
   -3.5502   -0.6389    3.2287 S   0  0  0  0  0  0  0  0  0  0  0  0
   -3.9954    0.2801    2.1949 O   0  0  0  0  0  0  0  0  0  0  0  0
   -2.9298   -1.8974    2.8703 O   0  0  0  0  0  0  0  0  0  0  0  0
   -4.9050   -0.9638    4.3617 C   0  0  0  0  0  0  0  0  0  0  0  0
   -5.9509   -1.8005    3.6673 C   0  0  0  0  0  0  0  0  0  0  0  0
   -5.8990   -3.2032    3.7209 C   0  0  0  0  0  0  0  0  0  0  0  0
   -6.8874   -3.9731    3.1057 C   0  0  0  0  0  0  0  0  0  0  0  0
   -7.9315   -3.3514    2.4250 C   0  0  0  0  0  0  0  0  0  0  0  0
   -7.9785   -1.9611    2.3436 C   0  0  0  0  0  0  0  0  0  0  0  0
   -6.9920   -1.1885    2.9576 C   0  0  0  0  0  0  0  0  0  0  0  0
   -1.8763   -0.4336    5.4104 C   0  0  0  0  0  0  0  0  0  0  0  0
   -0.7982   -1.4656    5.0595 C   0  0  0  0  0  0  0  0  0  0  0  0
    0.2529   -0.8767    4.2831 O   0  0  0  0  0  0  0  0  0  0  0  0
    4.0358    1.2755    6.0366 H   0  0  0  0  0  0  0  0  0  0  0  0
    3.0183    0.4429    4.8658 H   0  0  0  0  0  0  0  0  0  0  0  0
    2.5971    2.1035    5.4301 H   0  0  0  0  0  0  0  0  0  0  0  0
    6.2324    1.9457    2.7348 H   0  0  0  0  0  0  0  0  0  0  0  0
    8.0541    0.8892    1.4801 H   0  0  0  0  0  0  0  0  0  0  0  0
    7.9597    3.2256   -1.3274 H   0  0  0  0  0  0  0  0  0  0  0  0
    9.8694    3.6660   -2.8029 H   0  0  0  0  0  0  0  0  0  0  0  0
   10.3375    0.4854    0.9890 H   0  0  0  0  0  0  0  0  0  0  0  0
    5.4662    0.1227   -2.7895 H   0  0  0  0  0  0  0  0  0  0  0  0
    2.2386    0.5649    0.2299 H   0  0  0  0  0  0  0  0  0  0  0  0
    1.4075   -0.7257    1.9034 H   0  0  0  0  0  0  0  0  0  0  0  0
    0.4262    0.6583    1.3029 H   0  0  0  0  0  0  0  0  0  0  0  0
   -0.7668   -1.0839    2.5064 H   0  0  0  0  0  0  0  0  0  0  0  0
   -1.6530    1.3196    2.5038 H   0  0  0  0  0  0  0  0  0  0  0  0
   -0.8154    1.5946    4.0284 H   0  0  0  0  0  0  0  0  0  0  0  0
   -5.3133   -0.0077    4.7003 H   0  0  0  0  0  0  0  0  0  0  0  0
   -4.5161   -1.5165    5.2199 H   0  0  0  0  0  0  0  0  0  0  0  0
   -5.0852   -3.7107    4.2358 H   0  0  0  0  0  0  0  0  0  0  0  0
   -6.8422   -5.0583    3.1551 H   0  0  0  0  0  0  0  0  0  0  0  0
   -8.7043   -3.9502    1.9501 H   0  0  0  0  0  0  0  0  0  0  0  0
   -8.7842   -1.4762    1.7985 H   0  0  0  0  0  0  0  0  0  0  0  0
   -7.0395   -0.1045    2.8724 H   0  0  0  0  0  0  0  0  0  0  0  0
   -2.6658   -0.8741    6.0204 H   0  0  0  0  0  0  0  0  0  0  0  0
   -1.4220    0.3579    6.0214 H   0  0  0  0  0  0  0  0  0  0  0  0
   -1.2042   -2.3274    4.5221 H   0  0  0  0  0  0  0  0  0  0  0  0
   -0.3467   -1.8495    5.9790 H   0  0  0  0  0  0  0  0  0  0  0  0
  1  2  1  0  0  0  0
  1 40  1  0  0  0  0
  1 41  1  0  0  0  0
  1 42  1  0  0  0  0
  2  3  1  0  0  0  0
  3  4  1  0  0  0  0
  3 21  2  0  0  0  0
  4  5  2  0  0  0  0
  4 43  1  0  0  0  0
  5  6  1  0  0  0  0
  5 19  1  0  0  0  0
  6  7  1  0  0  0  0
  6 16  2  0  0  0  0
  7  8  1  0  0  0  0
  7 44  1  0  0  0  0
  8  9  1  0  0  0  0
  8 15  2  0  0  0  0
  9 10  2  0  0  0  0
  9 45  1  0  0  0  0
 10 11  1  0  0  0  0
 10 46  1  0  0  0  0
 11 12  1  0  0  0  0
 11 13  2  0  0  0  0
 13 14  1  0  0  0  0
 13 15  1  0  0  0  0
 15 47  1  0  0  0  0
 16 17  1  0  0  0  0
 17 18  2  0  0  0  0
 17 48  1  0  0  0  0
 18 19  1  0  0  0  0
 19 20  2  0  0  0  0
 20 21  1  0  0  0  0
 20 49  1  0  0  0  0
 21 22  1  0  0  0  0
 22 23  1  0  0  0  0
 23 24  1  0  0  0  0
 23 50  1  0  0  0  0
 23 51  1  0  0  0  0
 24 25  1  0  0  0  0
 24 39  1  0  0  0  0
 24 52  1  0  0  0  0
 25 26  1  0  0  0  0
 25 53  1  0  0  0  0
 25 54  1  0  0  0  0
 26 27  1  0  0  0  0
 26 37  1  0  0  0  0
 27 28  2  0  0  0  0
 27 29  2  0  0  0  0
 27 30  1  0  0  0  0
 30 31  1  0  0  0  0
 30 55  1  0  0  0  0
 30 56  1  0  0  0  0
 31 32  1  0  0  0  0
 31 36  2  0  0  0  0
 32 33  2  0  0  0  0
 32 57  1  0  0  0  0
 33 34  1  0  0  0  0
 33 58  1  0  0  0  0
 34 35  2  0  0  0  0
 34 59  1  0  0  0  0
 35 36  1  0  0  0  0
 35 60  1  0  0  0  0
 36 61  1  0  0  0  0
 37 38  1  0  0  0  0
 37 62  1  0  0  0  0
 37 63  1  0  0  0  0
 38 39  1  0  0  0  0
 38 64  1  0  0  0  0
 38 65  1  0  0  0  0
M  END
$$$$
