CHEMBL3972173
 OpenBabel04072215373D

 72 76  0  0  0  0  0  0  0  0999 V2000
    2.6242   -1.0553   -1.5402 C   0  0  0  0  0  0  0  0  0  0  0  0
    3.4238    0.0936   -1.2285 O   0  0  0  0  0  0  0  0  0  0  0  0
    4.0544    0.1045   -0.0027 C   0  0  0  0  0  0  0  0  0  0  0  0
    3.9287   -0.9324    0.9206 C   0  0  0  0  0  0  0  0  0  0  0  0
    4.5304   -0.8054    2.1555 C   0  0  0  0  0  0  0  0  0  0  0  0
    4.5565   -1.7794    3.1224 O   0  0  0  0  0  0  0  0  0  0  0  0
    3.9992   -3.0522    2.7913 C   0  0  0  0  0  0  0  0  0  0  0  0
    5.2182    0.3853    2.4692 C   0  0  0  0  0  0  0  0  0  0  0  0
    5.5779    1.3732    1.5153 C   0  0  0  0  0  0  0  0  0  0  0  0
    6.6322    2.4115    1.8293 N   0  0  0  0  0  0  0  0  0  0  0  0
    7.1101    3.1275    0.6183 C   0  0  0  0  0  0  0  0  0  0  0  0
    6.2670    4.2517    0.0287 C   0  0  0  0  0  0  0  0  0  0  0  0
    5.9088    5.4522    0.8662 C   0  0  0  0  0  0  0  0  0  0  0  0
    4.8133    4.6129    0.2756 C   0  0  0  0  0  0  0  0  0  0  0  0
    7.7006    2.1765    2.8386 C   0  0  0  0  0  0  0  0  0  0  0  0
    7.8603    0.8719    3.2451 C   0  0  0  0  0  0  0  0  0  0  0  0
    8.0615    0.6258    4.5840 C   0  0  0  0  0  0  0  0  0  0  0  0
    8.5782    1.5617    5.4176 C   0  0  0  0  0  0  0  0  0  0  0  0
    8.5440    1.1897    6.6973 N   0  0  0  0  0  0  0  0  0  0  0  0
    9.5309    1.6329    7.4653 C   0  0  0  0  0  0  0  0  0  0  0  0
   10.5793    2.3528    6.9366 C   0  0  0  0  0  0  0  0  0  0  0  0
   11.8759    2.0203    7.6003 C   0  0  0  0  0  0  0  0  0  0  0  0
   12.9661    2.7556    8.1464 C   0  0  0  0  0  0  0  0  0  0  0  0
   13.8460    2.0149    8.8205 N   0  0  0  0  0  0  0  0  0  0  0  0
   13.3476    0.7602    8.7575 N   0  0  0  0  0  0  0  0  0  0  0  0
   14.0217   -0.3822    9.3807 C   0  0  0  0  0  0  0  0  0  0  0  0
   15.5557   -0.3541    9.2995 C   0  0  0  0  0  0  0  0  0  0  0  0
   16.1623    0.7708   10.0629 N   0  0  0  0  0  0  0  0  0  0  0  0
   16.2245    0.5818   11.7235 S   0  0  0  0  0  0  0  0  0  0  0  0
   14.8607    0.6067   12.2198 O   0  0  0  0  0  0  0  0  0  0  0  0
   17.0964   -0.5356   12.0232 O   0  0  0  0  0  0  0  0  0  0  0  0
   16.9826    2.0114   12.1745 N   0  0  0  0  0  0  0  0  0  0  0  0
   16.9097    2.2576   13.6366 C   0  0  0  0  0  0  0  0  0  0  0  0
   18.3519    2.2035   11.6640 C   0  0  0  0  0  0  0  0  0  0  0  0
   12.1548    0.7303    8.0822 C   0  0  0  0  0  0  0  0  0  0  0  0
   10.4061    2.9980    5.7011 N   0  0  0  0  0  0  0  0  0  0  0  0
    9.2640    2.6382    4.8775 C   0  0  0  0  0  0  0  0  0  0  0  0
    8.5701    3.0591    3.5710 C   0  0  0  0  0  0  0  0  0  0  0  0
    4.8901    1.2282    0.2824 C   0  0  0  0  0  0  0  0  0  0  0  0
    2.2174   -0.9357   -2.5496 H   0  0  0  0  0  0  0  0  0  0  0  0
    1.7721   -1.1570   -0.8555 H   0  0  0  0  0  0  0  0  0  0  0  0
    3.2268   -1.9719   -1.5433 H   0  0  0  0  0  0  0  0  0  0  0  0
    3.3518   -1.8186    0.6880 H   0  0  0  0  0  0  0  0  0  0  0  0
    4.2431   -3.7531    3.5966 H   0  0  0  0  0  0  0  0  0  0  0  0
    4.4177   -3.4690    1.8664 H   0  0  0  0  0  0  0  0  0  0  0  0
    2.9090   -2.9808    2.7282 H   0  0  0  0  0  0  0  0  0  0  0  0
    5.5444    0.4714    3.4997 H   0  0  0  0  0  0  0  0  0  0  0  0
    7.2858    2.3965   -0.1842 H   0  0  0  0  0  0  0  0  0  0  0  0
    8.0940    3.5719    0.8013 H   0  0  0  0  0  0  0  0  0  0  0  0
    6.6147    4.4587   -0.9838 H   0  0  0  0  0  0  0  0  0  0  0  0
    6.0870    6.4337    0.4452 H   0  0  0  0  0  0  0  0  0  0  0  0
    6.0300    5.3978    1.9443 H   0  0  0  0  0  0  0  0  0  0  0  0
    4.2492    5.0577   -0.5437 H   0  0  0  0  0  0  0  0  0  0  0  0
    4.2020    4.0261    0.9471 H   0  0  0  0  0  0  0  0  0  0  0  0
    7.5722    0.0296    2.6169 H   0  0  0  0  0  0  0  0  0  0  0  0
    7.8129   -0.3491    4.9787 H   0  0  0  0  0  0  0  0  0  0  0  0
    9.5502    1.1933    8.4549 H   0  0  0  0  0  0  0  0  0  0  0  0
   13.1170    3.8285    8.1206 H   0  0  0  0  0  0  0  0  0  0  0  0
   13.6695   -1.2809    8.8571 H   0  0  0  0  0  0  0  0  0  0  0  0
   13.6621   -0.4654   10.4114 H   0  0  0  0  0  0  0  0  0  0  0  0
   15.8609   -0.2423    8.2529 H   0  0  0  0  0  0  0  0  0  0  0  0
   15.9837   -1.3059    9.6419 H   0  0  0  0  0  0  0  0  0  0  0  0
   15.6479    1.6357    9.8419 H   0  0  0  0  0  0  0  0  0  0  0  0
   15.8706    2.2835   13.9730 H   0  0  0  0  0  0  0  0  0  0  0  0
   17.3480    3.2327   13.8774 H   0  0  0  0  0  0  0  0  0  0  0  0
   17.4565    1.4858   14.1879 H   0  0  0  0  0  0  0  0  0  0  0  0
   18.3673    2.2055   10.5712 H   0  0  0  0  0  0  0  0  0  0  0  0
   19.0340    1.4377   12.0457 H   0  0  0  0  0  0  0  0  0  0  0  0
   18.7316    3.1813   11.9814 H   0  0  0  0  0  0  0  0  0  0  0  0
   11.5935   -0.1957    8.0325 H   0  0  0  0  0  0  0  0  0  0  0  0
    8.7571    4.0696    3.2080 H   0  0  0  0  0  0  0  0  0  0  0  0
    4.9641    1.9736   -0.5020 H   0  0  0  0  0  0  0  0  0  0  0  0
  1  2  1  0  0  0  0
  1 40  1  0  0  0  0
  1 41  1  0  0  0  0
  1 42  1  0  0  0  0
  2  3  1  0  0  0  0
  3  4  1  0  0  0  0
  3 39  2  0  0  0  0
  4  5  2  0  0  0  0
  4 43  1  0  0  0  0
  5  6  1  0  0  0  0
  5  8  1  0  0  0  0
  6  7  1  0  0  0  0
  7 44  1  0  0  0  0
  7 45  1  0  0  0  0
  7 46  1  0  0  0  0
  8  9  2  0  0  0  0
  8 47  1  0  0  0  0
  9 10  1  0  0  0  0
  9 39  1  0  0  0  0
 10 11  1  0  0  0  0
 10 15  1  0  0  0  0
 11 12  1  0  0  0  0
 11 48  1  0  0  0  0
 11 49  1  0  0  0  0
 12 13  1  0  0  0  0
 12 14  1  0  0  0  0
 12 50  1  0  0  0  0
 13 14  1  0  0  0  0
 13 51  1  0  0  0  0
 13 52  1  0  0  0  0
 14 53  1  0  0  0  0
 14 54  1  0  0  0  0
 15 16  1  0  0  0  0
 15 38  2  0  0  0  0
 16 17  2  0  0  0  0
 16 55  1  0  0  0  0
 17 18  1  0  0  0  0
 17 56  1  0  0  0  0
 18 19  1  0  0  0  0
 18 37  2  0  0  0  0
 19 20  2  0  0  0  0
 20 21  1  0  0  0  0
 20 57  1  0  0  0  0
 21 22  1  0  0  0  0
 21 36  2  0  0  0  0
 22 23  1  0  0  0  0
 22 35  2  0  0  0  0
 23 24  2  0  0  0  0
 23 58  1  0  0  0  0
 24 25  1  0  0  0  0
 25 26  1  0  0  0  0
 25 35  1  0  0  0  0
 26 27  1  0  0  0  0
 26 59  1  0  0  0  0
 26 60  1  0  0  0  0
 27 28  1  0  0  0  0
 27 61  1  0  0  0  0
 27 62  1  0  0  0  0
 28 29  1  0  0  0  0
 28 63  1  0  0  0  0
 29 30  2  0  0  0  0
 29 31  2  0  0  0  0
 29 32  1  0  0  0  0
 32 33  1  0  0  0  0
 32 34  1  0  0  0  0
 33 64  1  0  0  0  0
 33 65  1  0  0  0  0
 33 66  1  0  0  0  0
 34 67  1  0  0  0  0
 34 68  1  0  0  0  0
 34 69  1  0  0  0  0
 35 70  1  0  0  0  0
 36 37  1  0  0  0  0
 37 38  1  0  0  0  0
 38 71  1  0  0  0  0
 39 72  1  0  0  0  0
M  END
$$$$
