CHEMBL4795436
 OpenBabel04072215383D

 50 53  0  0  0  0  0  0  0  0999 V2000
    5.3606   -1.6900   -6.7031 C   0  0  0  0  0  0  0  0  0  0  0  0
    5.9882   -0.4705   -7.1145 O   0  0  0  0  0  0  0  0  0  0  0  0
    6.0078    0.5233   -6.1702 C   0  0  0  0  0  0  0  0  0  0  0  0
    6.1303    0.2144   -4.8035 C   0  0  0  0  0  0  0  0  0  0  0  0
    5.9929    1.1706   -3.8084 C   0  0  0  0  0  0  0  0  0  0  0  0
    6.0055    0.7716   -2.5325 N   0  0  0  0  0  0  0  0  0  0  0  0
    5.7598    1.7098   -1.6140 C   0  0  0  0  0  0  0  0  0  0  0  0
    5.5011    2.9948   -1.8554 N   0  0  0  0  0  0  0  0  0  0  0  0
    5.5109    3.3896   -3.1430 C   0  0  0  0  0  0  0  0  0  0  0  0
    5.1627    4.7301   -3.4500 N   0  0  0  0  0  0  0  0  0  0  0  0
    4.4586    5.6059   -2.6014 C   0  0  0  0  0  0  0  0  0  0  0  0
    4.7644    6.9650   -2.5929 C   0  0  0  0  0  0  0  0  0  0  0  0
    4.1473    7.8232   -1.6752 C   0  0  0  0  0  0  0  0  0  0  0  0
    3.1985    7.3385   -0.7717 C   0  0  0  0  0  0  0  0  0  0  0  0
    2.6182    8.1177    0.2516 N   0  0  0  0  0  0  0  0  0  0  0  0
    2.9346    9.4205    0.5768 C   0  0  0  0  0  0  0  0  0  0  0  0
    3.7891   10.1072    0.0220 O   0  0  0  0  0  0  0  0  0  0  0  0
    2.2135   10.0456    1.7247 C   0  0  0  0  0  0  0  0  0  0  0  0
    2.9222   11.0567    2.4071 C   0  0  0  0  0  0  0  0  0  0  0  0
    2.3248   11.7973    3.4271 C   0  0  0  0  0  0  0  0  0  0  0  0
    1.0076   11.5390    3.7811 C   0  0  0  0  0  0  0  0  0  0  0  0
    0.3005   10.5204    3.1377 C   0  0  0  0  0  0  0  0  0  0  0  0
    0.8977    9.7674    2.1148 C   0  0  0  0  0  0  0  0  0  0  0  0
   -0.0886    8.5480    1.3878 Cl  0  0  0  0  0  0  0  0  0  0  0  0
    2.8036    6.0050   -0.8617 C   0  0  0  0  0  0  0  0  0  0  0  0
    3.4228    5.1516   -1.7764 C   0  0  0  0  0  0  0  0  0  0  0  0
    5.7869    2.4958   -4.1880 C   0  0  0  0  0  0  0  0  0  0  0  0
    5.8069    2.8368   -5.5580 C   0  0  0  0  0  0  0  0  0  0  0  0
    5.9071    1.8630   -6.5560 C   0  0  0  0  0  0  0  0  0  0  0  0
    5.8433    2.4209   -7.7996 O   0  0  0  0  0  0  0  0  0  0  0  0
    5.7847    1.5932   -8.9463 C   0  0  0  0  0  0  0  0  0  0  0  0
    4.8012   -2.0896   -7.5539 H   0  0  0  0  0  0  0  0  0  0  0  0
    4.6414   -1.5646   -5.8833 H   0  0  0  0  0  0  0  0  0  0  0  0
    6.1300   -2.4157   -6.4211 H   0  0  0  0  0  0  0  0  0  0  0  0
    6.2908   -0.8110   -4.4807 H   0  0  0  0  0  0  0  0  0  0  0  0
    5.7514    1.3975   -0.5762 H   0  0  0  0  0  0  0  0  0  0  0  0
    5.9158    5.1813   -3.9574 H   0  0  0  0  0  0  0  0  0  0  0  0
    5.5126    7.3759   -3.2616 H   0  0  0  0  0  0  0  0  0  0  0  0
    4.4466    8.8636   -1.6872 H   0  0  0  0  0  0  0  0  0  0  0  0
    1.9277    7.6480    0.8278 H   0  0  0  0  0  0  0  0  0  0  0  0
    3.9513   11.2842    2.1286 H   0  0  0  0  0  0  0  0  0  0  0  0
    2.8855   12.5862    3.9251 H   0  0  0  0  0  0  0  0  0  0  0  0
    0.5258   12.1317    4.5560 H   0  0  0  0  0  0  0  0  0  0  0  0
   -0.7303   10.3306    3.4286 H   0  0  0  0  0  0  0  0  0  0  0  0
    2.0353    5.5972   -0.2104 H   0  0  0  0  0  0  0  0  0  0  0  0
    3.1092    4.1125   -1.8196 H   0  0  0  0  0  0  0  0  0  0  0  0
    5.6879    3.8742   -5.8661 H   0  0  0  0  0  0  0  0  0  0  0  0
    5.5235    2.2403   -9.7902 H   0  0  0  0  0  0  0  0  0  0  0  0
    4.9957    0.8401   -8.8740 H   0  0  0  0  0  0  0  0  0  0  0  0
    6.7620    1.1508   -9.1586 H   0  0  0  0  0  0  0  0  0  0  0  0
  1  2  1  0  0  0  0
  1 32  1  0  0  0  0
  1 33  1  0  0  0  0
  1 34  1  0  0  0  0
  2  3  1  0  0  0  0
  3  4  1  0  0  0  0
  3 29  2  0  0  0  0
  4  5  2  0  0  0  0
  4 35  1  0  0  0  0
  5  6  1  0  0  0  0
  5 27  1  0  0  0  0
  6  7  2  0  0  0  0
  7  8  1  0  0  0  0
  7 36  1  0  0  0  0
  8  9  2  0  0  0  0
  9 10  1  0  0  0  0
  9 27  1  0  0  0  0
 10 11  1  0  0  0  0
 10 37  1  0  0  0  0
 11 12  1  0  0  0  0
 11 26  2  0  0  0  0
 12 13  2  0  0  0  0
 12 38  1  0  0  0  0
 13 14  1  0  0  0  0
 13 39  1  0  0  0  0
 14 15  1  0  0  0  0
 14 25  2  0  0  0  0
 15 16  1  0  0  0  0
 15 40  1  0  0  0  0
 16 17  2  0  0  0  0
 16 18  1  0  0  0  0
 18 19  1  0  0  0  0
 18 23  2  0  0  0  0
 19 20  2  0  0  0  0
 19 41  1  0  0  0  0
 20 21  1  0  0  0  0
 20 42  1  0  0  0  0
 21 22  2  0  0  0  0
 21 43  1  0  0  0  0
 22 23  1  0  0  0  0
 22 44  1  0  0  0  0
 23 24  1  0  0  0  0
 25 26  1  0  0  0  0
 25 45  1  0  0  0  0
 26 46  1  0  0  0  0
 27 28  2  0  0  0  0
 28 29  1  0  0  0  0
 28 47  1  0  0  0  0
 29 30  1  0  0  0  0
 30 31  1  0  0  0  0
 31 48  1  0  0  0  0
 31 49  1  0  0  0  0
 31 50  1  0  0  0  0
M  END
$$$$
