CHEMBL3133758
 OpenBabel04072215363D

 69 72  0  0  0  0  0  0  0  0999 V2000
    4.8945    1.0657   -0.6646 C   0  0  0  0  0  0  0  0  0  0  0  0
    4.4445   -0.3160   -0.1988 C   0  0  0  0  0  0  0  0  0  0  0  0
    4.7961   -0.6788    1.1979 N   0  0  0  0  0  0  0  0  0  0  0  0
    4.2205    0.2996    2.1593 C   0  0  0  0  0  0  0  0  0  0  0  0
    4.6198    0.0910    3.6352 C   0  0  0  0  0  0  0  0  0  0  0  0
    6.0353    0.0922    3.7945 O   0  0  0  0  0  0  0  0  0  0  0  0
    4.3188   -2.0543    1.4867 C   0  0  0  0  0  0  0  0  0  0  0  0
    4.9437   -3.1533    0.6115 C   0  0  0  0  0  0  0  0  0  0  0  0
    6.4619   -3.1384    0.7188 C   0  0  0  0  0  0  0  0  0  0  0  0
    7.0210   -4.1516   -0.1187 O   0  0  0  0  0  0  0  0  0  0  0  0
    8.3901   -4.2306   -0.0911 C   0  0  0  0  0  0  0  0  0  0  0  0
    9.2254   -3.4266    0.6801 C   0  0  0  0  0  0  0  0  0  0  0  0
   10.5991   -3.6423    0.6678 C   0  0  0  0  0  0  0  0  0  0  0  0
   11.1559   -4.6649   -0.1249 C   0  0  0  0  0  0  0  0  0  0  0  0
   12.5185   -5.0053   -0.1441 C   0  0  0  0  0  0  0  0  0  0  0  0
   13.4160   -4.3056    0.7025 N   0  0  0  0  0  0  0  0  0  0  0  0
   14.6863   -4.7698    1.1066 C   0  0  0  0  0  0  0  0  0  0  0  0
   15.7342   -3.8581    1.2695 C   0  0  0  0  0  0  0  0  0  0  0  0
   17.0055   -4.3065    1.6158 C   0  0  0  0  0  0  0  0  0  0  0  0
   17.2221   -5.6601    1.8701 C   0  0  0  0  0  0  0  0  0  0  0  0
   16.1640   -6.5717    1.8364 C   0  0  0  0  0  0  0  0  0  0  0  0
   16.3121   -7.9323    2.2030 N   0  0  0  0  0  0  0  0  0  0  0  0
   17.3254   -8.4046    3.0173 C   0  0  0  0  0  0  0  0  0  0  0  0
   18.1424   -7.6981    3.5981 O   0  0  0  0  0  0  0  0  0  0  0  0
   17.3360   -9.7930    3.0861 N   0  0  0  0  0  0  0  0  0  0  0  0
   18.3178  -10.4489    3.8676 C   0  0  0  0  0  0  0  0  0  0  0  0
   18.6161  -10.0192    5.1702 C   0  0  0  0  0  0  0  0  0  0  0  0
   19.6550  -10.6086    5.8913 C   0  0  0  0  0  0  0  0  0  0  0  0
   20.4007  -11.6228    5.3039 C   0  0  0  0  0  0  0  0  0  0  0  0
   21.4234  -12.1516    5.9919 F   0  0  0  0  0  0  0  0  0  0  0  0
   20.0959  -12.0726    4.0191 C   0  0  0  0  0  0  0  0  0  0  0  0
   21.0497  -13.2990    3.2746 Cl  0  0  0  0  0  0  0  0  0  0  0  0
   19.0349  -11.5070    3.3061 C   0  0  0  0  0  0  0  0  0  0  0  0
   14.9078   -6.1227    1.4233 C   0  0  0  0  0  0  0  0  0  0  0  0
   12.9980   -5.9849   -0.9309 N   0  0  0  0  0  0  0  0  0  0  0  0
   12.1171   -6.6318   -1.6954 C   0  0  0  0  0  0  0  0  0  0  0  0
   10.8015   -6.4198   -1.7295 N   0  0  0  0  0  0  0  0  0  0  0  0
   10.3263   -5.4489   -0.9402 C   0  0  0  0  0  0  0  0  0  0  0  0
    8.9532   -5.2171   -0.9051 C   0  0  0  0  0  0  0  0  0  0  0  0
    4.8500    1.1138   -1.7591 H   0  0  0  0  0  0  0  0  0  0  0  0
    5.9260    1.2761   -0.3663 H   0  0  0  0  0  0  0  0  0  0  0  0
    4.2418    1.8540   -0.2784 H   0  0  0  0  0  0  0  0  0  0  0  0
    4.9346   -1.0178   -0.8814 H   0  0  0  0  0  0  0  0  0  0  0  0
    3.3633   -0.4115   -0.3609 H   0  0  0  0  0  0  0  0  0  0  0  0
    3.1269    0.3140    2.0831 H   0  0  0  0  0  0  0  0  0  0  0  0
    4.5868    1.2983    1.8960 H   0  0  0  0  0  0  0  0  0  0  0  0
    4.2275   -0.8440    4.0437 H   0  0  0  0  0  0  0  0  0  0  0  0
    4.2144    0.9059    4.2439 H   0  0  0  0  0  0  0  0  0  0  0  0
    6.3787   -0.5003    3.1014 H   0  0  0  0  0  0  0  0  0  0  0  0
    3.2263   -2.1056    1.4019 H   0  0  0  0  0  0  0  0  0  0  0  0
    4.5694   -2.3153    2.5206 H   0  0  0  0  0  0  0  0  0  0  0  0
    4.6343   -3.0682   -0.4362 H   0  0  0  0  0  0  0  0  0  0  0  0
    4.5678   -4.1316    0.9362 H   0  0  0  0  0  0  0  0  0  0  0  0
    6.7378   -3.3262    1.7641 H   0  0  0  0  0  0  0  0  0  0  0  0
    6.8431   -2.1627    0.3971 H   0  0  0  0  0  0  0  0  0  0  0  0
    8.8471   -2.6351    1.3172 H   0  0  0  0  0  0  0  0  0  0  0  0
   11.2266   -3.0173    1.2971 H   0  0  0  0  0  0  0  0  0  0  0  0
   13.4164   -3.3237    0.4562 H   0  0  0  0  0  0  0  0  0  0  0  0
   15.5814   -2.7961    1.1009 H   0  0  0  0  0  0  0  0  0  0  0  0
   17.8322   -3.6059    1.6931 H   0  0  0  0  0  0  0  0  0  0  0  0
   18.2349   -5.9766    2.1030 H   0  0  0  0  0  0  0  0  0  0  0  0
   15.4912   -8.5174    2.1303 H   0  0  0  0  0  0  0  0  0  0  0  0
   17.0570  -10.2457    2.2263 H   0  0  0  0  0  0  0  0  0  0  0  0
   18.0531   -9.2068    5.6271 H   0  0  0  0  0  0  0  0  0  0  0  0
   19.8999  -10.2640    6.8915 H   0  0  0  0  0  0  0  0  0  0  0  0
   18.8293  -11.8422    2.2942 H   0  0  0  0  0  0  0  0  0  0  0  0
   14.0747   -6.8177    1.3676 H   0  0  0  0  0  0  0  0  0  0  0  0
   12.5120   -7.3996   -2.3508 H   0  0  0  0  0  0  0  0  0  0  0  0
    8.3017   -5.8366   -1.5164 H   0  0  0  0  0  0  0  0  0  0  0  0
  1  2  1  0  0  0  0
  1 40  1  0  0  0  0
  1 41  1  0  0  0  0
  1 42  1  0  0  0  0
  2  3  1  0  0  0  0
  2 43  1  0  0  0  0
  2 44  1  0  0  0  0
  3  4  1  0  0  0  0
  3  7  1  0  0  0  0
  4  5  1  0  0  0  0
  4 45  1  0  0  0  0
  4 46  1  0  0  0  0
  5  6  1  0  0  0  0
  5 47  1  0  0  0  0
  5 48  1  0  0  0  0
  6 49  1  0  0  0  0
  7  8  1  0  0  0  0
  7 50  1  0  0  0  0
  7 51  1  0  0  0  0
  8  9  1  0  0  0  0
  8 52  1  0  0  0  0
  8 53  1  0  0  0  0
  9 10  1  0  0  0  0
  9 54  1  0  0  0  0
  9 55  1  0  0  0  0
 10 11  1  0  0  0  0
 11 12  1  0  0  0  0
 11 39  2  0  0  0  0
 12 13  2  0  0  0  0
 12 56  1  0  0  0  0
 13 14  1  0  0  0  0
 13 57  1  0  0  0  0
 14 15  1  0  0  0  0
 14 38  2  0  0  0  0
 15 16  1  0  0  0  0
 15 35  2  0  0  0  0
 16 17  1  0  0  0  0
 16 58  1  0  0  0  0
 17 18  1  0  0  0  0
 17 34  2  0  0  0  0
 18 19  2  0  0  0  0
 18 59  1  0  0  0  0
 19 20  1  0  0  0  0
 19 60  1  0  0  0  0
 20 21  2  0  0  0  0
 20 61  1  0  0  0  0
 21 22  1  0  0  0  0
 21 34  1  0  0  0  0
 22 23  1  0  0  0  0
 22 62  1  0  0  0  0
 23 24  2  0  0  0  0
 23 25  1  0  0  0  0
 25 26  1  0  0  0  0
 25 63  1  0  0  0  0
 26 27  1  0  0  0  0
 26 33  2  0  0  0  0
 27 28  2  0  0  0  0
 27 64  1  0  0  0  0
 28 29  1  0  0  0  0
 28 65  1  0  0  0  0
 29 30  1  0  0  0  0
 29 31  2  0  0  0  0
 31 32  1  0  0  0  0
 31 33  1  0  0  0  0
 33 66  1  0  0  0  0
 34 67  1  0  0  0  0
 35 36  1  0  0  0  0
 36 37  2  0  0  0  0
 36 68  1  0  0  0  0
 37 38  1  0  0  0  0
 38 39  1  0  0  0  0
 39 69  1  0  0  0  0
M  END
$$$$
