CHEMBL2386818
 OpenBabel04072215363D

 65 69  0  0  0  0  0  0  0  0999 V2000
   -1.0542    4.3871   -2.9918 C   0  0  0  0  0  0  0  0  0  0  0  0
   -1.8491    3.4475   -2.1658 C   0  0  0  0  0  0  0  0  0  0  0  0
   -2.8837    2.6193   -2.5479 C   0  0  0  0  0  0  0  0  0  0  0  0
   -3.4822    1.9113   -1.5312 N   0  0  0  0  0  0  0  0  0  0  0  0
   -2.8768    2.1948   -0.4013 C   0  0  0  0  0  0  0  0  0  0  0  0
   -3.2118    1.7408    0.8357 N   0  0  0  0  0  0  0  0  0  0  0  0
   -4.3591    1.0605    1.1327 C   0  0  0  0  0  0  0  0  0  0  0  0
   -4.5424    0.7251    2.3018 O   0  0  0  0  0  0  0  0  0  0  0  0
   -5.2215    0.8399    0.0839 N   0  0  0  0  0  0  0  0  0  0  0  0
   -6.5156    0.3054    0.1304 C   0  0  0  0  0  0  0  0  0  0  0  0
   -7.2148    0.1586    1.3194 C   0  0  0  0  0  0  0  0  0  0  0  0
   -8.4705   -0.4393    1.3232 C   0  0  0  0  0  0  0  0  0  0  0  0
   -9.0629   -0.9003    0.1370 C   0  0  0  0  0  0  0  0  0  0  0  0
  -10.3532   -1.5942    0.1984 C   0  0  0  0  0  0  0  0  0  0  0  0
  -11.1198   -1.8232    1.3681 C   0  0  0  0  0  0  0  0  0  0  0  0
  -12.2302   -2.5264    0.9856 C   0  0  0  0  0  0  0  0  0  0  0  0
  -13.2789   -2.9750    1.7827 N   0  0  0  0  0  0  0  0  0  0  0  0
  -13.3314   -2.7259    3.2041 C   0  0  0  0  0  0  0  0  0  0  0  0
  -12.4594   -2.0936    3.7787 O   0  0  0  0  0  0  0  0  0  0  0  0
  -14.5014   -3.2296    3.9508 C   0  0  0  0  0  0  0  0  0  0  0  0
  -15.2377   -4.3317    3.5264 C   0  0  0  0  0  0  0  0  0  0  0  0
  -16.3127   -4.7730    4.3031 C   0  0  0  0  0  0  0  0  0  0  0  0
  -16.6758   -4.1473    5.5096 C   0  0  0  0  0  0  0  0  0  0  0  0
  -17.7035   -4.6722    6.2652 N   0  0  0  0  0  0  0  0  0  0  0  0
  -17.8150   -4.4426    7.7160 C   0  0  0  0  0  0  0  0  0  0  0  0
  -18.5085   -5.6672    8.3672 C   0  0  0  0  0  0  0  0  0  0  0  0
  -19.8260   -5.9757    7.7610 N   0  0  0  0  0  0  0  0  0  0  0  0
  -20.3972   -7.1807    8.3581 C   0  0  0  0  0  0  0  0  0  0  0  0
  -19.6696   -6.1510    6.2992 C   0  0  0  0  0  0  0  0  0  0  0  0
  -19.0086   -4.9281    5.6272 C   0  0  0  0  0  0  0  0  0  0  0  0
  -15.9103   -3.0539    5.9205 C   0  0  0  0  0  0  0  0  0  0  0  0
  -14.8341   -2.5946    5.1535 C   0  0  0  0  0  0  0  0  0  0  0  0
  -12.0829   -2.6928   -0.3664 N   0  0  0  0  0  0  0  0  0  0  0  0
  -10.9663   -2.1341   -0.8692 N   0  0  0  0  0  0  0  0  0  0  0  0
   -8.3837   -0.6950   -1.0684 C   0  0  0  0  0  0  0  0  0  0  0  0
   -7.1222   -0.0828   -1.0719 C   0  0  0  0  0  0  0  0  0  0  0  0
   -1.5597    3.2668   -0.4809 S   0  0  0  0  0  0  0  0  0  0  0  0
   -1.3530    4.3182   -4.0433 H   0  0  0  0  0  0  0  0  0  0  0  0
    0.0148    4.1626   -2.9285 H   0  0  0  0  0  0  0  0  0  0  0  0
   -1.2201    5.4189   -2.6654 H   0  0  0  0  0  0  0  0  0  0  0  0
   -3.2588    2.5101   -3.5583 H   0  0  0  0  0  0  0  0  0  0  0  0
   -2.6219    1.9748    1.6209 H   0  0  0  0  0  0  0  0  0  0  0  0
   -4.8309    1.0145   -0.8403 H   0  0  0  0  0  0  0  0  0  0  0  0
   -6.8113    0.5016    2.2665 H   0  0  0  0  0  0  0  0  0  0  0  0
   -8.9548   -0.5439    2.2880 H   0  0  0  0  0  0  0  0  0  0  0  0
  -10.8622   -1.5006    2.3637 H   0  0  0  0  0  0  0  0  0  0  0  0
  -14.0467   -3.4513    1.3323 H   0  0  0  0  0  0  0  0  0  0  0  0
  -14.9775   -4.9030    2.6419 H   0  0  0  0  0  0  0  0  0  0  0  0
  -16.8425   -5.6704    3.9889 H   0  0  0  0  0  0  0  0  0  0  0  0
  -18.3914   -3.5295    7.9127 H   0  0  0  0  0  0  0  0  0  0  0  0
  -16.8285   -4.3298    8.1810 H   0  0  0  0  0  0  0  0  0  0  0  0
  -18.6326   -5.4676    9.4378 H   0  0  0  0  0  0  0  0  0  0  0  0
  -17.8392   -6.5336    8.2692 H   0  0  0  0  0  0  0  0  0  0  0  0
  -20.5455   -7.0416    9.4342 H   0  0  0  0  0  0  0  0  0  0  0  0
  -19.7606   -8.0607    8.2105 H   0  0  0  0  0  0  0  0  0  0  0  0
  -21.3813   -7.3921    7.9269 H   0  0  0  0  0  0  0  0  0  0  0  0
  -20.6521   -6.3090    5.8396 H   0  0  0  0  0  0  0  0  0  0  0  0
  -19.0576   -7.0387    6.0866 H   0  0  0  0  0  0  0  0  0  0  0  0
  -19.6498   -4.0437    5.7401 H   0  0  0  0  0  0  0  0  0  0  0  0
  -18.9251   -5.1227    4.5529 H   0  0  0  0  0  0  0  0  0  0  0  0
  -16.1392   -2.5303    6.8451 H   0  0  0  0  0  0  0  0  0  0  0  0
  -14.2546   -1.7449    5.5143 H   0  0  0  0  0  0  0  0  0  0  0  0
  -12.6955   -3.1761   -1.0125 H   0  0  0  0  0  0  0  0  0  0  0  0
   -8.8193   -1.0237   -2.0099 H   0  0  0  0  0  0  0  0  0  0  0  0
   -6.6076    0.0542   -2.0200 H   0  0  0  0  0  0  0  0  0  0  0  0
  1  2  1  0  0  0  0
  1 38  1  0  0  0  0
  1 39  1  0  0  0  0
  1 40  1  0  0  0  0
  2  3  2  0  0  0  0
  2 37  1  0  0  0  0
  3  4  1  0  0  0  0
  3 41  1  0  0  0  0
  4  5  2  0  0  0  0
  5  6  1  0  0  0  0
  5 37  1  0  0  0  0
  6  7  1  0  0  0  0
  6 42  1  0  0  0  0
  7  8  2  0  0  0  0
  7  9  1  0  0  0  0
  9 10  1  0  0  0  0
  9 43  1  0  0  0  0
 10 11  1  0  0  0  0
 10 36  2  0  0  0  0
 11 12  2  0  0  0  0
 11 44  1  0  0  0  0
 12 13  1  0  0  0  0
 12 45  1  0  0  0  0
 13 14  1  0  0  0  0
 13 35  2  0  0  0  0
 14 15  1  0  0  0  0
 14 34  2  0  0  0  0
 15 16  2  0  0  0  0
 15 46  1  0  0  0  0
 16 17  1  0  0  0  0
 16 33  1  0  0  0  0
 17 18  1  0  0  0  0
 17 47  1  0  0  0  0
 18 19  2  0  0  0  0
 18 20  1  0  0  0  0
 20 21  1  0  0  0  0
 20 32  2  0  0  0  0
 21 22  2  0  0  0  0
 21 48  1  0  0  0  0
 22 23  1  0  0  0  0
 22 49  1  0  0  0  0
 23 24  1  0  0  0  0
 23 31  2  0  0  0  0
 24 25  1  0  0  0  0
 24 30  1  0  0  0  0
 25 26  1  0  0  0  0
 25 50  1  0  0  0  0
 25 51  1  0  0  0  0
 26 27  1  0  0  0  0
 26 52  1  0  0  0  0
 26 53  1  0  0  0  0
 27 28  1  0  0  0  0
 27 29  1  0  0  0  0
 28 54  1  0  0  0  0
 28 55  1  0  0  0  0
 28 56  1  0  0  0  0
 29 30  1  0  0  0  0
 29 57  1  0  0  0  0
 29 58  1  0  0  0  0
 30 59  1  0  0  0  0
 30 60  1  0  0  0  0
 31 32  1  0  0  0  0
 31 61  1  0  0  0  0
 32 62  1  0  0  0  0
 33 34  1  0  0  0  0
 33 63  1  0  0  0  0
 35 36  1  0  0  0  0
 35 64  1  0  0  0  0
 36 65  1  0  0  0  0
M  END
$$$$
