CHEMBL3968343
 OpenBabel04072215373D

 55 58  0  0  0  0  0  0  0  0999 V2000
    3.6995   -1.1308   -0.2181 C   0  0  0  0  0  0  0  0  0  0  0  0
    2.6363   -0.1103    0.1802 C   0  0  0  0  0  0  0  0  0  0  0  0
    1.9826   -0.4604    1.5150 C   0  0  0  0  0  0  0  0  0  0  0  0
    3.1849    1.3044    0.1815 C   0  0  0  0  0  0  0  0  0  0  0  0
    2.5992    2.2292   -0.6922 C   0  0  0  0  0  0  0  0  0  0  0  0
    3.0538    3.5345   -0.7392 C   0  0  0  0  0  0  0  0  0  0  0  0
    4.0927    3.9282    0.0967 C   0  0  0  0  0  0  0  0  0  0  0  0
    4.6794    3.0570    1.0253 C   0  0  0  0  0  0  0  0  0  0  0  0
    5.6696    3.4928    1.9666 N   0  0  0  0  0  0  0  0  0  0  0  0
    5.9296    4.8313    2.2190 C   0  0  0  0  0  0  0  0  0  0  0  0
    5.3920    5.7451    1.6085 O   0  0  0  0  0  0  0  0  0  0  0  0
    6.8282    5.0841    3.2420 N   0  0  0  0  0  0  0  0  0  0  0  0
    6.9769    6.3958    3.7932 C   0  0  0  0  0  0  0  0  0  0  0  0
    5.9608    7.3590    3.6848 C   0  0  0  0  0  0  0  0  0  0  0  0
    6.0441    8.6216    4.2736 C   0  0  0  0  0  0  0  0  0  0  0  0
    7.1102    8.9225    5.1121 C   0  0  0  0  0  0  0  0  0  0  0  0
    6.8810    9.9042    6.2601 C   0  0  0  0  0  0  0  0  0  0  0  0
    7.5779    9.7390    7.4713 C   0  0  0  0  0  0  0  0  0  0  0  0
    6.7872    8.7154    8.1060 C   0  0  0  0  0  0  0  0  0  0  0  0
    7.0756    7.6181    8.9289 C   0  0  0  0  0  0  0  0  0  0  0  0
    6.0457    6.7193    9.2302 C   0  0  0  0  0  0  0  0  0  0  0  0
    4.7359    6.9427    8.7886 C   0  0  0  0  0  0  0  0  0  0  0  0
    4.4153    8.0551    8.0169 C   0  0  0  0  0  0  0  0  0  0  0  0
    5.4778    8.8770    7.6391 C   0  0  0  0  0  0  0  0  0  0  0  0
    5.5623    9.9858    6.8072 N   0  0  0  0  0  0  0  0  0  0  0  0
    4.5187   10.8780    6.5097 C   0  0  0  0  0  0  0  0  0  0  0  0
    4.9537   12.1644    6.3754 N   0  0  0  0  0  0  0  0  0  0  0  0
    3.3450   10.5402    6.5519 O   0  0  0  0  0  0  0  0  0  0  0  0
    8.1912    8.0069    5.1454 C   0  0  0  0  0  0  0  0  0  0  0  0
    8.1214    6.7490    4.5060 C   0  0  0  0  0  0  0  0  0  0  0  0
    4.2342    1.7277    1.0395 C   0  0  0  0  0  0  0  0  0  0  0  0
    3.2501   -2.1230   -0.3355 H   0  0  0  0  0  0  0  0  0  0  0  0
    4.4931   -1.2064    0.5316 H   0  0  0  0  0  0  0  0  0  0  0  0
    4.1624   -0.8605   -1.1743 H   0  0  0  0  0  0  0  0  0  0  0  0
    1.8461   -0.1730   -0.5825 H   0  0  0  0  0  0  0  0  0  0  0  0
    2.6992   -0.4270    2.3416 H   0  0  0  0  0  0  0  0  0  0  0  0
    1.5518   -1.4666    1.4808 H   0  0  0  0  0  0  0  0  0  0  0  0
    1.1727    0.2414    1.7459 H   0  0  0  0  0  0  0  0  0  0  0  0
    1.7763    1.9441   -1.3443 H   0  0  0  0  0  0  0  0  0  0  0  0
    2.6010    4.2609   -1.4071 H   0  0  0  0  0  0  0  0  0  0  0  0
    4.4073    4.9579   -0.0175 H   0  0  0  0  0  0  0  0  0  0  0  0
    6.0197    2.8077    2.6186 H   0  0  0  0  0  0  0  0  0  0  0  0
    7.5547    4.4068    3.4202 H   0  0  0  0  0  0  0  0  0  0  0  0
    5.0129    7.1306    3.2061 H   0  0  0  0  0  0  0  0  0  0  0  0
    5.1849    9.2793    4.1814 H   0  0  0  0  0  0  0  0  0  0  0  0
    8.6573    9.7822    7.5608 H   0  0  0  0  0  0  0  0  0  0  0  0
    8.0958    7.4166    9.2399 H   0  0  0  0  0  0  0  0  0  0  0  0
    6.2724    5.8175    9.7874 H   0  0  0  0  0  0  0  0  0  0  0  0
    3.9553    6.2309    9.0404 H   0  0  0  0  0  0  0  0  0  0  0  0
    3.4033    8.2178    7.6471 H   0  0  0  0  0  0  0  0  0  0  0  0
    5.8548   12.4265    6.7553 H   0  0  0  0  0  0  0  0  0  0  0  0
    4.2181   12.8564    6.4730 H   0  0  0  0  0  0  0  0  0  0  0  0
    9.0569    8.2045    5.7744 H   0  0  0  0  0  0  0  0  0  0  0  0
    8.9458    6.0522    4.6287 H   0  0  0  0  0  0  0  0  0  0  0  0
    4.6740    1.0105    1.7273 H   0  0  0  0  0  0  0  0  0  0  0  0
  1  2  1  0  0  0  0
  1 32  1  0  0  0  0
  1 33  1  0  0  0  0
  1 34  1  0  0  0  0
  2  3  1  0  0  0  0
  2  4  1  0  0  0  0
  2 35  1  0  0  0  0
  3 36  1  0  0  0  0
  3 37  1  0  0  0  0
  3 38  1  0  0  0  0
  4  5  1  0  0  0  0
  4 31  2  0  0  0  0
  5  6  2  0  0  0  0
  5 39  1  0  0  0  0
  6  7  1  0  0  0  0
  6 40  1  0  0  0  0
  7  8  2  0  0  0  0
  7 41  1  0  0  0  0
  8  9  1  0  0  0  0
  8 31  1  0  0  0  0
  9 10  1  0  0  0  0
  9 42  1  0  0  0  0
 10 11  2  0  0  0  0
 10 12  1  0  0  0  0
 12 13  1  0  0  0  0
 12 43  1  0  0  0  0
 13 14  1  0  0  0  0
 13 30  2  0  0  0  0
 14 15  2  0  0  0  0
 14 44  1  0  0  0  0
 15 16  1  0  0  0  0
 15 45  1  0  0  0  0
 16 17  1  0  0  0  0
 16 29  2  0  0  0  0
 17 18  2  0  0  0  0
 17 25  1  0  0  0  0
 18 19  1  0  0  0  0
 18 46  1  0  0  0  0
 19 20  1  0  0  0  0
 19 24  2  0  0  0  0
 20 21  2  0  0  0  0
 20 47  1  0  0  0  0
 21 22  1  0  0  0  0
 21 48  1  0  0  0  0
 22 23  2  0  0  0  0
 22 49  1  0  0  0  0
 23 24  1  0  0  0  0
 23 50  1  0  0  0  0
 24 25  1  0  0  0  0
 25 26  1  0  0  0  0
 26 27  1  0  0  0  0
 26 28  2  0  0  0  0
 27 51  1  0  0  0  0
 27 52  1  0  0  0  0
 29 30  1  0  0  0  0
 29 53  1  0  0  0  0
 30 54  1  0  0  0  0
 31 55  1  0  0  0  0
M  END
$$$$
