CHEMBL4589270
 OpenBabel04072215383D

 59 63  0  0  0  0  0  0  0  0999 V2000
    8.7563   -2.4711    2.7153 C   0  0  0  0  0  0  0  0  0  0  0  0
    7.8584   -3.5845    2.7758 O   0  0  0  0  0  0  0  0  0  0  0  0
    7.4150   -4.0521    1.5661 C   0  0  0  0  0  0  0  0  0  0  0  0
    8.2234   -3.9790    0.4156 C   0  0  0  0  0  0  0  0  0  0  0  0
    7.7588   -4.3144   -0.8489 C   0  0  0  0  0  0  0  0  0  0  0  0
    8.5521   -4.1025   -1.9033 N   0  0  0  0  0  0  0  0  0  0  0  0
    8.0200   -4.3419   -3.1078 C   0  0  0  0  0  0  0  0  0  0  0  0
    6.7821   -4.7791   -3.3514 N   0  0  0  0  0  0  0  0  0  0  0  0
    6.0056   -5.0261   -2.2815 C   0  0  0  0  0  0  0  0  0  0  0  0
    4.6773   -5.4616   -2.4836 N   0  0  0  0  0  0  0  0  0  0  0  0
    3.7675   -5.0887   -3.4837 C   0  0  0  0  0  0  0  0  0  0  0  0
    3.8908   -3.8973   -4.1904 C   0  0  0  0  0  0  0  0  0  0  0  0
    2.8986   -3.4839   -5.0852 C   0  0  0  0  0  0  0  0  0  0  0  0
    1.7552   -4.2559   -5.3379 C   0  0  0  0  0  0  0  0  0  0  0  0
    1.6273   -5.4692   -4.6366 C   0  0  0  0  0  0  0  0  0  0  0  0
    2.6280   -5.8660   -3.7202 C   0  0  0  0  0  0  0  0  0  0  0  0
    0.4320   -6.3706   -4.7994 C   0  0  0  0  0  0  0  0  0  0  0  0
   -0.4387   -5.9926   -5.9855 C   0  0  0  0  0  0  0  0  0  0  0  0
   -0.5801   -4.4835   -6.0685 C   0  0  0  0  0  0  0  0  0  0  0  0
    0.7239   -3.8342   -6.2678 N   0  0  0  0  0  0  0  0  0  0  0  0
    1.0268   -2.9287   -7.2940 C   0  0  0  0  0  0  0  0  0  0  0  0
    2.1684   -2.5160   -7.4954 O   0  0  0  0  0  0  0  0  0  0  0  0
   -0.0160   -2.5525   -8.1272 N   0  0  0  0  0  0  0  0  0  0  0  0
    0.1212   -1.7226   -9.2779 C   0  0  0  0  0  0  0  0  0  0  0  0
    1.3542   -1.4250   -9.8773 C   0  0  0  0  0  0  0  0  0  0  0  0
    1.4545   -0.5289  -10.9422 C   0  0  0  0  0  0  0  0  0  0  0  0
    0.3062    0.0564  -11.4596 C   0  0  0  0  0  0  0  0  0  0  0  0
   -0.9323   -0.2798  -10.9173 C   0  0  0  0  0  0  0  0  0  0  0  0
   -2.3575    0.4237  -11.5826 Cl  0  0  0  0  0  0  0  0  0  0  0  0
   -1.0355   -1.1656   -9.8384 C   0  0  0  0  0  0  0  0  0  0  0  0
    6.4616   -4.8124   -0.9694 C   0  0  0  0  0  0  0  0  0  0  0  0
    5.6864   -5.0042    0.1950 C   0  0  0  0  0  0  0  0  0  0  0  0
    6.1422   -4.6197    1.4607 C   0  0  0  0  0  0  0  0  0  0  0  0
    5.1953   -4.8493    2.4161 O   0  0  0  0  0  0  0  0  0  0  0  0
    5.3783   -4.3735    3.7369 C   0  0  0  0  0  0  0  0  0  0  0  0
    8.5553   -1.8225    3.5730 H   0  0  0  0  0  0  0  0  0  0  0  0
    8.6309   -1.8541    1.8167 H   0  0  0  0  0  0  0  0  0  0  0  0
    9.7883   -2.8286    2.7876 H   0  0  0  0  0  0  0  0  0  0  0  0
    9.2444   -3.6109    0.4811 H   0  0  0  0  0  0  0  0  0  0  0  0
    8.6501   -4.1566   -3.9713 H   0  0  0  0  0  0  0  0  0  0  0  0
    4.4795   -6.3342   -2.0144 H   0  0  0  0  0  0  0  0  0  0  0  0
    4.7445   -3.2426   -4.0342 H   0  0  0  0  0  0  0  0  0  0  0  0
    3.0485   -2.5090   -5.5386 H   0  0  0  0  0  0  0  0  0  0  0  0
    2.5049   -6.8041   -3.1836 H   0  0  0  0  0  0  0  0  0  0  0  0
   -0.1610   -6.3156   -3.8783 H   0  0  0  0  0  0  0  0  0  0  0  0
    0.7605   -7.4101   -4.9211 H   0  0  0  0  0  0  0  0  0  0  0  0
   -1.4225   -6.4654   -5.8836 H   0  0  0  0  0  0  0  0  0  0  0  0
    0.0079   -6.3681   -6.9144 H   0  0  0  0  0  0  0  0  0  0  0  0
   -1.0085   -4.0788   -5.1412 H   0  0  0  0  0  0  0  0  0  0  0  0
   -1.2843   -4.2543   -6.8691 H   0  0  0  0  0  0  0  0  0  0  0  0
   -0.9539   -2.6415   -7.7667 H   0  0  0  0  0  0  0  0  0  0  0  0
    2.2826   -1.8732   -9.5351 H   0  0  0  0  0  0  0  0  0  0  0  0
    2.4334   -0.2884  -11.3491 H   0  0  0  0  0  0  0  0  0  0  0  0
    0.3883    0.7662  -12.2768 H   0  0  0  0  0  0  0  0  0  0  0  0
   -2.0163   -1.3957   -9.4352 H   0  0  0  0  0  0  0  0  0  0  0  0
    4.6794   -5.4096    0.1178 H   0  0  0  0  0  0  0  0  0  0  0  0
    4.4010   -4.4278    4.2298 H   0  0  0  0  0  0  0  0  0  0  0  0
    5.6855   -3.3255    3.7690 H   0  0  0  0  0  0  0  0  0  0  0  0
    6.0628   -5.0226    4.2899 H   0  0  0  0  0  0  0  0  0  0  0  0
  1  2  1  0  0  0  0
  1 36  1  0  0  0  0
  1 37  1  0  0  0  0
  1 38  1  0  0  0  0
  2  3  1  0  0  0  0
  3  4  1  0  0  0  0
  3 33  2  0  0  0  0
  4  5  2  0  0  0  0
  4 39  1  0  0  0  0
  5  6  1  0  0  0  0
  5 31  1  0  0  0  0
  6  7  2  0  0  0  0
  7  8  1  0  0  0  0
  7 40  1  0  0  0  0
  8  9  2  0  0  0  0
  9 10  1  0  0  0  0
  9 31  1  0  0  0  0
 10 11  1  0  0  0  0
 10 41  1  0  0  0  0
 11 12  1  0  0  0  0
 11 16  2  0  0  0  0
 12 13  2  0  0  0  0
 12 42  1  0  0  0  0
 13 14  1  0  0  0  0
 13 43  1  0  0  0  0
 14 15  2  0  0  0  0
 14 20  1  0  0  0  0
 15 16  1  0  0  0  0
 15 17  1  0  0  0  0
 16 44  1  0  0  0  0
 17 18  1  0  0  0  0
 17 45  1  0  0  0  0
 17 46  1  0  0  0  0
 18 19  1  0  0  0  0
 18 47  1  0  0  0  0
 18 48  1  0  0  0  0
 19 20  1  0  0  0  0
 19 49  1  0  0  0  0
 19 50  1  0  0  0  0
 20 21  1  0  0  0  0
 21 22  2  0  0  0  0
 21 23  1  0  0  0  0
 23 24  1  0  0  0  0
 23 51  1  0  0  0  0
 24 25  1  0  0  0  0
 24 30  2  0  0  0  0
 25 26  2  0  0  0  0
 25 52  1  0  0  0  0
 26 27  1  0  0  0  0
 26 53  1  0  0  0  0
 27 28  2  0  0  0  0
 27 54  1  0  0  0  0
 28 29  1  0  0  0  0
 28 30  1  0  0  0  0
 30 55  1  0  0  0  0
 31 32  2  0  0  0  0
 32 33  1  0  0  0  0
 32 56  1  0  0  0  0
 33 34  1  0  0  0  0
 34 35  1  0  0  0  0
 35 57  1  0  0  0  0
 35 58  1  0  0  0  0
 35 59  1  0  0  0  0
M  END
$$$$
