CHEMBL3819253
 OpenBabel04072215373D

 37 40  0  0  0  0  0  0  0  0999 V2000
   -1.5781   -0.4173    2.6772 Cl  0  0  0  0  0  0  0  0  0  0  0  0
   -0.0325   -0.2719    1.9363 C   0  0  0  0  0  0  0  0  0  0  0  0
    0.3629    0.9483    1.3992 C   0  0  0  0  0  0  0  0  0  0  0  0
    1.6301    1.0707    0.8245 C   0  0  0  0  0  0  0  0  0  0  0  0
    2.5189   -0.0152    0.7906 C   0  0  0  0  0  0  0  0  0  0  0  0
    3.8046    0.0830    0.2240 N   0  0  0  0  0  0  0  0  0  0  0  0
    4.5865    1.2426    0.1790 C   0  0  0  0  0  0  0  0  0  0  0  0
    5.4036    1.3967   -0.8693 N   0  0  0  0  0  0  0  0  0  0  0  0
    6.1073    2.5437   -0.9135 C   0  0  0  0  0  0  0  0  0  0  0  0
    6.0164    3.5358    0.0350 C   0  0  0  0  0  0  0  0  0  0  0  0
    5.1824    3.2795    1.0981 C   0  0  0  0  0  0  0  0  0  0  0  0
    5.0657    4.2344    2.1371 N   0  0  0  0  0  0  0  0  0  0  0  0
    4.5730    3.9364    3.4336 C   0  0  0  0  0  0  0  0  0  0  0  0
    4.9865    2.7691    4.0971 C   0  0  0  0  0  0  0  0  0  0  0  0
    4.5263    2.4263    5.3725 C   0  0  0  0  0  0  0  0  0  0  0  0
    3.6258    3.3065    5.9696 C   0  0  0  0  0  0  0  0  0  0  0  0
    2.9778    3.2623    7.1765 N   0  0  0  0  0  0  0  0  0  0  0  0
    2.1754    4.3166    7.4058 N   0  0  0  0  0  0  0  0  0  0  0  0
    2.3100    5.0536    6.2989 C   0  0  0  0  0  0  0  0  0  0  0  0
    3.2021    4.4829    5.3631 C   0  0  0  0  0  0  0  0  0  0  0  0
    3.6905    4.8171    4.0827 C   0  0  0  0  0  0  0  0  0  0  0  0
    4.4785    2.1408    1.1660 N   0  0  0  0  0  0  0  0  0  0  0  0
    2.0841   -1.2471    1.2934 C   0  0  0  0  0  0  0  0  0  0  0  0
    0.8191   -1.3721    1.8805 C   0  0  0  0  0  0  0  0  0  0  0  0
   -0.2970    1.8106    1.4318 H   0  0  0  0  0  0  0  0  0  0  0  0
    1.9224    2.0338    0.4126 H   0  0  0  0  0  0  0  0  0  0  0  0
    3.8966   -0.3880   -0.6669 H   0  0  0  0  0  0  0  0  0  0  0  0
    6.7741    2.6442   -1.7651 H   0  0  0  0  0  0  0  0  0  0  0  0
    6.6014    4.4418   -0.0336 H   0  0  0  0  0  0  0  0  0  0  0  0
    4.7048    5.1066    1.7684 H   0  0  0  0  0  0  0  0  0  0  0  0
    5.6842    2.0933    3.6051 H   0  0  0  0  0  0  0  0  0  0  0  0
    4.8521    1.5123    5.8559 H   0  0  0  0  0  0  0  0  0  0  0  0
    3.0388    2.5392    7.8821 H   0  0  0  0  0  0  0  0  0  0  0  0
    1.7492    5.9753    6.2154 H   0  0  0  0  0  0  0  0  0  0  0  0
    3.3557    5.7304    3.6031 H   0  0  0  0  0  0  0  0  0  0  0  0
    2.7490   -2.1075    1.2725 H   0  0  0  0  0  0  0  0  0  0  0  0
    0.5143   -2.3251    2.3029 H   0  0  0  0  0  0  0  0  0  0  0  0
  1  2  1  0  0  0  0
  2  3  1  0  0  0  0
  2 24  2  0  0  0  0
  3  4  2  0  0  0  0
  3 25  1  0  0  0  0
  4  5  1  0  0  0  0
  4 26  1  0  0  0  0
  5  6  1  0  0  0  0
  5 23  2  0  0  0  0
  6  7  1  0  0  0  0
  6 27  1  0  0  0  0
  7  8  1  0  0  0  0
  7 22  2  0  0  0  0
  8  9  2  0  0  0  0
  9 10  1  0  0  0  0
  9 28  1  0  0  0  0
 10 11  2  0  0  0  0
 10 29  1  0  0  0  0
 11 12  1  0  0  0  0
 11 22  1  0  0  0  0
 12 13  1  0  0  0  0
 12 30  1  0  0  0  0
 13 14  1  0  0  0  0
 13 21  2  0  0  0  0
 14 15  2  0  0  0  0
 14 31  1  0  0  0  0
 15 16  1  0  0  0  0
 15 32  1  0  0  0  0
 16 17  1  0  0  0  0
 16 20  2  0  0  0  0
 17 18  1  0  0  0  0
 17 33  1  0  0  0  0
 18 19  2  0  0  0  0
 19 20  1  0  0  0  0
 19 34  1  0  0  0  0
 20 21  1  0  0  0  0
 21 35  1  0  0  0  0
 23 24  1  0  0  0  0
 23 36  1  0  0  0  0
 24 37  1  0  0  0  0
M  END
$$$$
