CHEMBL4177112
 OpenBabel04072215383D

 72 77  0  0  0  0  0  0  0  0999 V2000
   19.4733    5.7770   -0.6991 C   0  0  0  0  0  0  0  0  0  0  0  0
   18.2123    5.1725   -0.4227 O   0  0  0  0  0  0  0  0  0  0  0  0
   18.3068    3.8696   -0.0727 C   0  0  0  0  0  0  0  0  0  0  0  0
   19.3335    3.2066   -0.0225 O   0  0  0  0  0  0  0  0  0  0  0  0
   16.9725    3.3278    0.2588 C   0  0  0  0  0  0  0  0  0  0  0  0
   15.7819    4.0874    0.1743 C   0  0  0  0  0  0  0  0  0  0  0  0
   14.5213    3.4969    0.3993 C   0  0  0  0  0  0  0  0  0  0  0  0
   14.4664    2.1423    0.6742 C   0  0  0  0  0  0  0  0  0  0  0  0
   15.6761    1.4382    0.8192 C   0  0  0  0  0  0  0  0  0  0  0  0
   16.9236    1.9866    0.6257 C   0  0  0  0  0  0  0  0  0  0  0  0
   15.4591    0.0877    1.0193 N   0  0  0  0  0  0  0  0  0  0  0  0
   14.1324   -0.2153    0.7580 C   0  0  0  0  0  0  0  0  0  0  0  0
   13.7549   -1.2705    0.3254 O   0  0  0  0  0  0  0  0  0  0  0  0
   13.4018    1.1248    0.8278 C   0  0  0  0  0  0  0  0  0  0  0  0
   12.0560    1.1833    0.9843 C   0  0  0  0  0  0  0  0  0  0  0  0
   11.2281    0.1336    1.3941 N   0  0  0  0  0  0  0  0  0  0  0  0
   11.4758   -0.8688    2.3590 C   0  0  0  0  0  0  0  0  0  0  0  0
   10.8377   -2.1186    2.2435 C   0  0  0  0  0  0  0  0  0  0  0  0
   10.8307   -3.0542    3.2846 C   0  0  0  0  0  0  0  0  0  0  0  0
   11.5462   -2.7183    4.4380 C   0  0  0  0  0  0  0  0  0  0  0  0
   12.2973   -1.5547    4.5438 C   0  0  0  0  0  0  0  0  0  0  0  0
   12.2886   -0.6266    3.4856 C   0  0  0  0  0  0  0  0  0  0  0  0
   12.9244   -1.4894    5.7650 N   0  0  0  0  0  0  0  0  0  0  0  0
   12.5725   -2.5875    6.4135 C   0  0  0  0  0  0  0  0  0  0  0  0
   13.1531   -3.0499    7.7233 C   0  0  0  0  0  0  0  0  0  0  0  0
   13.7760   -4.3758    7.5909 N   0  0  0  0  0  0  0  0  0  0  0  0
   14.8708   -4.3741    6.5994 C   0  0  0  0  0  0  0  0  0  0  0  0
   15.4435   -5.7954    6.4209 C   0  0  0  0  0  0  0  0  0  0  0  0
   15.9315   -6.4180    7.6679 N   0  0  0  0  0  0  0  0  0  0  0  0
   17.1878   -5.8073    8.0972 C   0  0  0  0  0  0  0  0  0  0  0  0
   14.8907   -6.3006    8.7121 C   0  0  0  0  0  0  0  0  0  0  0  0
   14.2778   -4.8860    8.8759 C   0  0  0  0  0  0  0  0  0  0  0  0
   11.6922   -3.3339    5.6594 N   0  0  0  0  0  0  0  0  0  0  0  0
   11.0750   -4.5916    6.0110 C   0  0  0  0  0  0  0  0  0  0  0  0
   11.3126    2.4158    0.5974 C   0  0  0  0  0  0  0  0  0  0  0  0
   10.8374    2.5461   -0.7221 C   0  0  0  0  0  0  0  0  0  0  0  0
   10.1173    3.6746   -1.1270 C   0  0  0  0  0  0  0  0  0  0  0  0
    9.8312    4.6810   -0.2085 C   0  0  0  0  0  0  0  0  0  0  0  0
   10.2675    4.5584    1.1078 C   0  0  0  0  0  0  0  0  0  0  0  0
   11.0110    3.4388    1.5084 C   0  0  0  0  0  0  0  0  0  0  0  0
   19.3253    6.8585   -0.7301 H   0  0  0  0  0  0  0  0  0  0  0  0
   19.8382    5.4383   -1.6710 H   0  0  0  0  0  0  0  0  0  0  0  0
   20.2011    5.5533    0.0885 H   0  0  0  0  0  0  0  0  0  0  0  0
   15.8300    5.1361   -0.1065 H   0  0  0  0  0  0  0  0  0  0  0  0
   13.6278    4.1036    0.3048 H   0  0  0  0  0  0  0  0  0  0  0  0
   17.8199    1.3781    0.6801 H   0  0  0  0  0  0  0  0  0  0  0  0
   16.1711   -0.6233    0.9746 H   0  0  0  0  0  0  0  0  0  0  0  0
   10.3846    0.0036    0.8525 H   0  0  0  0  0  0  0  0  0  0  0  0
   10.2538   -2.3496    1.3497 H   0  0  0  0  0  0  0  0  0  0  0  0
   10.2349   -3.9582    3.2277 H   0  0  0  0  0  0  0  0  0  0  0  0
   12.7993    0.3166    3.6124 H   0  0  0  0  0  0  0  0  0  0  0  0
   12.3390   -3.0920    8.4604 H   0  0  0  0  0  0  0  0  0  0  0  0
   13.8773   -2.3118    8.0871 H   0  0  0  0  0  0  0  0  0  0  0  0
   15.6602   -3.6730    6.8969 H   0  0  0  0  0  0  0  0  0  0  0  0
   14.5125   -4.0523    5.6160 H   0  0  0  0  0  0  0  0  0  0  0  0
   16.2380   -5.7779    5.6650 H   0  0  0  0  0  0  0  0  0  0  0  0
   14.6559   -6.4376    6.0024 H   0  0  0  0  0  0  0  0  0  0  0  0
   17.9453   -5.9019    7.3111 H   0  0  0  0  0  0  0  0  0  0  0  0
   17.5803   -6.3291    8.9760 H   0  0  0  0  0  0  0  0  0  0  0  0
   17.0917   -4.7462    8.3472 H   0  0  0  0  0  0  0  0  0  0  0  0
   15.2830   -6.6473    9.6758 H   0  0  0  0  0  0  0  0  0  0  0  0
   14.0811   -6.9986    8.4570 H   0  0  0  0  0  0  0  0  0  0  0  0
   15.0251   -4.2034    9.2998 H   0  0  0  0  0  0  0  0  0  0  0  0
   13.4548   -4.9524    9.5979 H   0  0  0  0  0  0  0  0  0  0  0  0
   11.3656   -4.9163    7.0089 H   0  0  0  0  0  0  0  0  0  0  0  0
   11.3817   -5.3412    5.2767 H   0  0  0  0  0  0  0  0  0  0  0  0
    9.9894   -4.4594    5.9891 H   0  0  0  0  0  0  0  0  0  0  0  0
   11.0178    1.7543   -1.4482 H   0  0  0  0  0  0  0  0  0  0  0  0
    9.7760    3.7616   -2.1555 H   0  0  0  0  0  0  0  0  0  0  0  0
    9.2575    5.5552   -0.5209 H   0  0  0  0  0  0  0  0  0  0  0  0
   10.0176    5.3352    1.8307 H   0  0  0  0  0  0  0  0  0  0  0  0
   11.3364    3.3623    2.5452 H   0  0  0  0  0  0  0  0  0  0  0  0
  1  2  1  0  0  0  0
  1 41  1  0  0  0  0
  1 42  1  0  0  0  0
  1 43  1  0  0  0  0
  2  3  1  0  0  0  0
  3  4  2  0  0  0  0
  3  5  1  0  0  0  0
  5  6  1  0  0  0  0
  5 10  2  0  0  0  0
  6  7  2  0  0  0  0
  6 44  1  0  0  0  0
  7  8  1  0  0  0  0
  7 45  1  0  0  0  0
  8  9  2  0  0  0  0
  8 14  1  0  0  0  0
  9 10  1  0  0  0  0
  9 11  1  0  0  0  0
 10 46  1  0  0  0  0
 11 12  1  0  0  0  0
 11 47  1  0  0  0  0
 12 13  2  0  0  0  0
 12 14  1  0  0  0  0
 14 15  2  0  0  0  0
 15 16  1  0  0  0  0
 15 35  1  0  0  0  0
 16 17  1  0  0  0  0
 16 48  1  0  0  0  0
 17 18  1  0  0  0  0
 17 22  2  0  0  0  0
 18 19  2  0  0  0  0
 18 49  1  0  0  0  0
 19 20  1  0  0  0  0
 19 50  1  0  0  0  0
 20 21  2  0  0  0  0
 20 33  1  0  0  0  0
 21 22  1  0  0  0  0
 21 23  1  0  0  0  0
 22 51  1  0  0  0  0
 23 24  2  0  0  0  0
 24 25  1  0  0  0  0
 24 33  1  0  0  0  0
 25 26  1  0  0  0  0
 25 52  1  0  0  0  0
 25 53  1  0  0  0  0
 26 27  1  0  0  0  0
 26 32  1  0  0  0  0
 27 28  1  0  0  0  0
 27 54  1  0  0  0  0
 27 55  1  0  0  0  0
 28 29  1  0  0  0  0
 28 56  1  0  0  0  0
 28 57  1  0  0  0  0
 29 30  1  0  0  0  0
 29 31  1  0  0  0  0
 30 58  1  0  0  0  0
 30 59  1  0  0  0  0
 30 60  1  0  0  0  0
 31 32  1  0  0  0  0
 31 61  1  0  0  0  0
 31 62  1  0  0  0  0
 32 63  1  0  0  0  0
 32 64  1  0  0  0  0
 33 34  1  0  0  0  0
 34 65  1  0  0  0  0
 34 66  1  0  0  0  0
 34 67  1  0  0  0  0
 35 36  1  0  0  0  0
 35 40  2  0  0  0  0
 36 37  2  0  0  0  0
 36 68  1  0  0  0  0
 37 38  1  0  0  0  0
 37 69  1  0  0  0  0
 38 39  2  0  0  0  0
 38 70  1  0  0  0  0
 39 40  1  0  0  0  0
 39 71  1  0  0  0  0
 40 72  1  0  0  0  0
M  END
$$$$
