CHEMBL376089
 OpenBabel04072215373D

 48 51  0  0  0  0  0  0  0  0999 V2000
    3.4151    1.0592    0.6873 C   0  0  0  0  0  0  0  0  0  0  0  0
    2.5823    0.3469   -0.2287 O   0  0  0  0  0  0  0  0  0  0  0  0
    3.2238   -0.5552   -1.0335 C   0  0  0  0  0  0  0  0  0  0  0  0
    4.2832   -1.3339   -0.5389 C   0  0  0  0  0  0  0  0  0  0  0  0
    4.9859   -2.2160   -1.3715 C   0  0  0  0  0  0  0  0  0  0  0  0
    4.5826   -2.3794   -2.6961 C   0  0  0  0  0  0  0  0  0  0  0  0
    3.4924   -1.6439   -3.1722 C   0  0  0  0  0  0  0  0  0  0  0  0
    2.8002   -0.7362   -2.3574 C   0  0  0  0  0  0  0  0  0  0  0  0
    1.7703   -0.1324   -3.0277 O   0  0  0  0  0  0  0  0  0  0  0  0
    0.9316    0.7787   -2.3366 C   0  0  0  0  0  0  0  0  0  0  0  0
    5.2035   -3.3301   -3.5166 N   0  0  0  0  0  0  0  0  0  0  0  0
    5.4256   -4.6785   -3.1975 C   0  0  0  0  0  0  0  0  0  0  0  0
    5.2977   -5.4808   -4.2726 N   0  0  0  0  0  0  0  0  0  0  0  0
    5.3329   -6.7939   -4.0444 C   0  0  0  0  0  0  0  0  0  0  0  0
    5.4679   -7.3807   -2.8562 N   0  0  0  0  0  0  0  0  0  0  0  0
    5.6361   -6.5739   -1.7988 C   0  0  0  0  0  0  0  0  0  0  0  0
    5.8652   -7.1736   -0.5393 N   0  0  0  0  0  0  0  0  0  0  0  0
    5.0861   -8.3811   -0.3075 C   0  0  0  0  0  0  0  0  0  0  0  0
    5.7913   -9.2564    0.7033 C   0  0  0  0  0  0  0  0  0  0  0  0
    7.0743   -9.7534    0.4111 C   0  0  0  0  0  0  0  0  0  0  0  0
    7.7286  -10.6031    1.3018 C   0  0  0  0  0  0  0  0  0  0  0  0
    7.1016  -10.9652    2.4883 C   0  0  0  0  0  0  0  0  0  0  0  0
    7.7445  -11.7869    3.3317 F   0  0  0  0  0  0  0  0  0  0  0  0
    5.8274  -10.4887    2.7918 C   0  0  0  0  0  0  0  0  0  0  0  0
    5.0446  -10.9493    4.2553 Cl  0  0  0  0  0  0  0  0  0  0  0  0
    5.1683   -9.6364    1.9015 C   0  0  0  0  0  0  0  0  0  0  0  0
    5.6796   -5.1677   -1.9018 C   0  0  0  0  0  0  0  0  0  0  0  0
    5.8027   -4.4005   -0.7036 N   0  0  0  0  0  0  0  0  0  0  0  0
    6.1677   -2.9984   -0.8742 C   0  0  0  0  0  0  0  0  0  0  0  0
    3.1367    2.1164    0.6420 H   0  0  0  0  0  0  0  0  0  0  0  0
    4.4853    1.0005    0.4610 H   0  0  0  0  0  0  0  0  0  0  0  0
    3.2267    0.6920    1.6997 H   0  0  0  0  0  0  0  0  0  0  0  0
    4.5733   -1.2622    0.5061 H   0  0  0  0  0  0  0  0  0  0  0  0
    3.1490   -1.7882   -4.1951 H   0  0  0  0  0  0  0  0  0  0  0  0
    0.1873    1.1445   -3.0533 H   0  0  0  0  0  0  0  0  0  0  0  0
    1.4925    1.6494   -1.9880 H   0  0  0  0  0  0  0  0  0  0  0  0
    0.3879    0.2848   -1.5247 H   0  0  0  0  0  0  0  0  0  0  0  0
    4.9294   -3.2969   -4.4937 H   0  0  0  0  0  0  0  0  0  0  0  0
    5.2286   -7.4463   -4.9041 H   0  0  0  0  0  0  0  0  0  0  0  0
    5.7735   -6.4736    0.1927 H   0  0  0  0  0  0  0  0  0  0  0  0
    4.9430   -8.9956   -1.2048 H   0  0  0  0  0  0  0  0  0  0  0  0
    4.0874   -8.1033    0.0515 H   0  0  0  0  0  0  0  0  0  0  0  0
    7.5600   -9.4713   -0.5230 H   0  0  0  0  0  0  0  0  0  0  0  0
    8.7187  -10.9859    1.0742 H   0  0  0  0  0  0  0  0  0  0  0  0
    4.1692   -9.2792    2.1387 H   0  0  0  0  0  0  0  0  0  0  0  0
    4.9105   -4.4580   -0.2135 H   0  0  0  0  0  0  0  0  0  0  0  0
    7.0345   -2.8738   -1.5377 H   0  0  0  0  0  0  0  0  0  0  0  0
    6.4891   -2.6044    0.0973 H   0  0  0  0  0  0  0  0  0  0  0  0
  1  2  1  0  0  0  0
  1 30  1  0  0  0  0
  1 31  1  0  0  0  0
  1 32  1  0  0  0  0
  2  3  1  0  0  0  0
  3  4  1  0  0  0  0
  3  8  2  0  0  0  0
  4  5  2  0  0  0  0
  4 33  1  0  0  0  0
  5  6  1  0  0  0  0
  5 29  1  0  0  0  0
  6  7  2  0  0  0  0
  6 11  1  0  0  0  0
  7  8  1  0  0  0  0
  7 34  1  0  0  0  0
  8  9  1  0  0  0  0
  9 10  1  0  0  0  0
 10 35  1  0  0  0  0
 10 36  1  0  0  0  0
 10 37  1  0  0  0  0
 11 12  1  0  0  0  0
 11 38  1  0  0  0  0
 12 13  1  0  0  0  0
 12 27  2  0  0  0  0
 13 14  2  0  0  0  0
 14 15  1  0  0  0  0
 14 39  1  0  0  0  0
 15 16  2  0  0  0  0
 16 17  1  0  0  0  0
 16 27  1  0  0  0  0
 17 18  1  0  0  0  0
 17 40  1  0  0  0  0
 18 19  1  0  0  0  0
 18 41  1  0  0  0  0
 18 42  1  0  0  0  0
 19 20  1  0  0  0  0
 19 26  2  0  0  0  0
 20 21  2  0  0  0  0
 20 43  1  0  0  0  0
 21 22  1  0  0  0  0
 21 44  1  0  0  0  0
 22 23  1  0  0  0  0
 22 24  2  0  0  0  0
 24 25  1  0  0  0  0
 24 26  1  0  0  0  0
 26 45  1  0  0  0  0
 27 28  1  0  0  0  0
 28 29  1  0  0  0  0
 28 46  1  0  0  0  0
 29 47  1  0  0  0  0
 29 48  1  0  0  0  0
M  END
$$$$
