CHEMBL224889
 OpenBabel04072215363D

 53 58  0  0  0  0  0  0  0  0999 V2000
   -1.4584    2.5678    3.3245 C   0  0  0  0  0  0  0  0  0  0  0  0
   -1.9507    1.5160    2.7317 C   0  0  0  0  0  0  0  0  0  0  0  0
   -2.3850    0.4114    1.8980 C   0  0  0  0  0  0  0  0  0  0  0  0
   -3.6951    0.0825    1.6527 C   0  0  0  0  0  0  0  0  0  0  0  0
   -3.9023   -1.0424    0.7544 C   0  0  0  0  0  0  0  0  0  0  0  0
   -5.3271   -1.4393    0.3901 C   0  0  0  0  0  0  0  0  0  0  0  0
   -6.2824   -0.8720    1.1609 N   0  0  0  0  0  0  0  0  0  0  0  0
   -6.7043    0.1319    0.3346 N   0  0  0  0  0  0  0  0  0  0  0  0
   -6.3169   -0.0893   -0.9617 C   0  0  0  0  0  0  0  0  0  0  0  0
   -5.9246   -1.4471   -0.9380 C   0  0  0  0  0  0  0  0  0  0  0  0
   -5.5306   -1.8522   -2.3181 C   0  0  0  0  0  0  0  0  0  0  0  0
   -4.8412   -0.5426   -2.6594 C   0  0  0  0  0  0  0  0  0  0  0  0
   -3.5974   -0.5636   -3.2675 C   0  0  0  0  0  0  0  0  0  0  0  0
   -2.6790    0.3901   -2.8425 C   0  0  0  0  0  0  0  0  0  0  0  0
   -1.2158    0.0234   -2.9732 C   0  0  0  0  0  0  0  0  0  0  0  0
   -0.6741    0.3396   -4.2775 N   0  0  0  0  0  0  0  0  0  0  0  0
    0.1079    1.4156   -4.5791 C   0  0  0  0  0  0  0  0  0  0  0  0
    0.3989    1.3067   -5.9157 C   0  0  0  0  0  0  0  0  0  0  0  0
   -0.2038    0.1003   -6.3181 C   0  0  0  0  0  0  0  0  0  0  0  0
   -0.8331   -0.5129   -5.3136 N   0  0  0  0  0  0  0  0  0  0  0  0
   -3.1225    1.5017   -2.0687 C   0  0  0  0  0  0  0  0  0  0  0  0
   -4.4581    1.5988   -1.6044 C   0  0  0  0  0  0  0  0  0  0  0  0
   -5.3096    0.5387   -1.8608 C   0  0  0  0  0  0  0  0  0  0  0  0
   -2.6839   -1.5054    0.2953 C   0  0  0  0  0  0  0  0  0  0  0  0
   -1.3576   -0.6227    0.9895 S   0  0  0  0  0  0  0  0  0  0  0  0
   -0.8845    3.7939    4.0156 C   0  0  0  0  0  0  0  0  0  0  0  0
    0.1140    3.4157    4.9525 O   0  0  0  0  0  0  0  0  0  0  0  0
    0.6923    4.4485    5.6432 C   0  0  0  0  0  0  0  0  0  0  0  0
    0.4033    5.8074    5.4850 C   0  0  0  0  0  0  0  0  0  0  0  0
    1.0708    6.7672    6.2504 C   0  0  0  0  0  0  0  0  0  0  0  0
    2.0319    6.3757    7.1796 C   0  0  0  0  0  0  0  0  0  0  0  0
    2.3231    5.0227    7.3424 C   0  0  0  0  0  0  0  0  0  0  0  0
    1.6602    4.0629    6.5703 C   0  0  0  0  0  0  0  0  0  0  0  0
   -4.5082    0.6587    2.0732 H   0  0  0  0  0  0  0  0  0  0  0  0
   -7.4356    0.7487    0.6785 H   0  0  0  0  0  0  0  0  0  0  0  0
   -6.4183   -1.9602   -2.9572 H   0  0  0  0  0  0  0  0  0  0  0  0
   -4.8953   -2.7298   -2.3809 H   0  0  0  0  0  0  0  0  0  0  0  0
   -3.2698   -1.4436   -3.8137 H   0  0  0  0  0  0  0  0  0  0  0  0
   -1.0855   -1.0536   -2.8125 H   0  0  0  0  0  0  0  0  0  0  0  0
   -0.6097    0.5221   -2.2075 H   0  0  0  0  0  0  0  0  0  0  0  0
    0.3676    2.1521   -3.8313 H   0  0  0  0  0  0  0  0  0  0  0  0
    0.9748    1.9979   -6.5131 H   0  0  0  0  0  0  0  0  0  0  0  0
   -0.2027   -0.3604   -7.2978 H   0  0  0  0  0  0  0  0  0  0  0  0
   -2.3901    2.2290   -1.7237 H   0  0  0  0  0  0  0  0  0  0  0  0
   -4.6965    2.3615   -0.8718 H   0  0  0  0  0  0  0  0  0  0  0  0
   -2.4659   -2.2836   -0.4220 H   0  0  0  0  0  0  0  0  0  0  0  0
   -1.7124    4.3045    4.5228 H   0  0  0  0  0  0  0  0  0  0  0  0
   -0.4599    4.4412    3.2385 H   0  0  0  0  0  0  0  0  0  0  0  0
   -0.3375    6.1642    4.7759 H   0  0  0  0  0  0  0  0  0  0  0  0
    0.8390    7.8210    6.1240 H   0  0  0  0  0  0  0  0  0  0  0  0
    2.5524    7.1221    7.7734 H   0  0  0  0  0  0  0  0  0  0  0  0
    3.0740    4.7117    8.0638 H   0  0  0  0  0  0  0  0  0  0  0  0
    1.8944    3.0115    6.7051 H   0  0  0  0  0  0  0  0  0  0  0  0
  1  2  3  0  0  0  0
  1 26  1  0  0  0  0
  2  3  1  0  0  0  0
  3  4  2  0  0  0  0
  3 25  1  0  0  0  0
  4  5  1  0  0  0  0
  4 34  1  0  0  0  0
  5  6  1  0  0  0  0
  5 24  2  0  0  0  0
  6  7  2  0  0  0  0
  6 10  1  0  0  0  0
  7  8  1  0  0  0  0
  8  9  1  0  0  0  0
  8 35  1  0  0  0  0
  9 10  2  0  0  0  0
  9 23  1  0  0  0  0
 10 11  1  0  0  0  0
 11 12  1  0  0  0  0
 11 36  1  0  0  0  0
 11 37  1  0  0  0  0
 12 13  1  0  0  0  0
 12 23  2  0  0  0  0
 13 14  2  0  0  0  0
 13 38  1  0  0  0  0
 14 15  1  0  0  0  0
 14 21  1  0  0  0  0
 15 16  1  0  0  0  0
 15 39  1  0  0  0  0
 15 40  1  0  0  0  0
 16 17  1  0  0  0  0
 16 20  1  0  0  0  0
 17 18  2  0  0  0  0
 17 41  1  0  0  0  0
 18 19  1  0  0  0  0
 18 42  1  0  0  0  0
 19 20  2  0  0  0  0
 19 43  1  0  0  0  0
 21 22  2  0  0  0  0
 21 44  1  0  0  0  0
 22 23  1  0  0  0  0
 22 45  1  0  0  0  0
 24 25  1  0  0  0  0
 24 46  1  0  0  0  0
 26 27  1  0  0  0  0
 26 47  1  0  0  0  0
 26 48  1  0  0  0  0
 27 28  1  0  0  0  0
 28 29  1  0  0  0  0
 28 33  2  0  0  0  0
 29 30  2  0  0  0  0
 29 49  1  0  0  0  0
 30 31  1  0  0  0  0
 30 50  1  0  0  0  0
 31 32  2  0  0  0  0
 31 51  1  0  0  0  0
 32 33  1  0  0  0  0
 32 52  1  0  0  0  0
 33 53  1  0  0  0  0
M  END
$$$$
