CHEMBL3780741
 OpenBabel04072215373D

 64 68  0  0  0  0  0  0  0  0999 V2000
   11.0782    3.1815   -0.6937 C   0  0  0  0  0  0  0  0  0  0  0  0
   10.3628    2.4469   -1.6801 O   0  0  0  0  0  0  0  0  0  0  0  0
    9.1038    2.8962   -1.9733 C   0  0  0  0  0  0  0  0  0  0  0  0
    8.4689    3.9870   -1.3822 C   0  0  0  0  0  0  0  0  0  0  0  0
    7.1742    4.3504   -1.7664 C   0  0  0  0  0  0  0  0  0  0  0  0
    6.4991    3.6381   -2.7655 C   0  0  0  0  0  0  0  0  0  0  0  0
    5.0727    3.9465   -3.1546 C   0  0  0  0  0  0  0  0  0  0  0  0
    4.6102    5.3808   -3.0655 C   0  0  0  0  0  0  0  0  0  0  0  0
    3.9378    5.6719   -1.9345 N   0  0  0  0  0  0  0  0  0  0  0  0
    3.2889    6.8567   -1.8194 N   0  0  0  0  0  0  0  0  0  0  0  0
    3.2591    7.7515   -2.8278 C   0  0  0  0  0  0  0  0  0  0  0  0
    2.4155    8.8908   -2.7058 N   0  0  0  0  0  0  0  0  0  0  0  0
    1.5300    9.1753   -1.6345 C   0  0  0  0  0  0  0  0  0  0  0  0
    1.2043   10.5031   -1.3591 C   0  0  0  0  0  0  0  0  0  0  0  0
    0.3754   10.8363   -0.2791 C   0  0  0  0  0  0  0  0  0  0  0  0
   -0.1812    9.8557    0.5438 C   0  0  0  0  0  0  0  0  0  0  0  0
   -0.9545   10.1491    1.6972 N   0  0  0  0  0  0  0  0  0  0  0  0
   -1.3254   11.4104    2.1210 C   0  0  0  0  0  0  0  0  0  0  0  0
   -1.1290   12.4522    1.4958 O   0  0  0  0  0  0  0  0  0  0  0  0
   -1.9187   11.4047    3.3766 N   0  0  0  0  0  0  0  0  0  0  0  0
   -2.3332   12.6250    3.9681 C   0  0  0  0  0  0  0  0  0  0  0  0
   -1.9722   12.8974    5.2831 C   0  0  0  0  0  0  0  0  0  0  0  0
   -2.2996   14.1327    5.8478 C   0  0  0  0  0  0  0  0  0  0  0  0
   -3.0216   15.0921    5.1219 C   0  0  0  0  0  0  0  0  0  0  0  0
   -3.3834   16.5626    5.9485 Cl  0  0  0  0  0  0  0  0  0  0  0  0
   -3.4115   14.8329    3.8055 C   0  0  0  0  0  0  0  0  0  0  0  0
   -4.1658   15.7978    2.9257 C   0  0  0  0  0  0  0  0  0  0  0  0
   -4.4771   17.0011    3.4749 F   0  0  0  0  0  0  0  0  0  0  0  0
   -3.4806   16.0929    1.7836 F   0  0  0  0  0  0  0  0  0  0  0  0
   -5.3566   15.2762    2.5084 F   0  0  0  0  0  0  0  0  0  0  0  0
   -3.0605   13.5827    3.2460 C   0  0  0  0  0  0  0  0  0  0  0  0
    0.0638    8.5207    0.2207 C   0  0  0  0  0  0  0  0  0  0  0  0
    0.8882    8.1899   -0.8707 C   0  0  0  0  0  0  0  0  0  0  0  0
    4.0190    7.5307   -4.0030 C   0  0  0  0  0  0  0  0  0  0  0  0
    4.0878    8.4359   -5.0966 C   0  0  0  0  0  0  0  0  0  0  0  0
    4.8833    8.1818   -6.2171 C   0  0  0  0  0  0  0  0  0  0  0  0
    5.6273    7.0123   -6.2840 C   0  0  0  0  0  0  0  0  0  0  0  0
    5.5500    6.0872   -5.2446 C   0  0  0  0  0  0  0  0  0  0  0  0
    4.7488    6.3158   -4.1035 C   0  0  0  0  0  0  0  0  0  0  0  0
    7.1349    2.5264   -3.3384 C   0  0  0  0  0  0  0  0  0  0  0  0
    8.4258    2.1630   -2.9474 C   0  0  0  0  0  0  0  0  0  0  0  0
   12.0719    2.7355   -0.5939 H   0  0  0  0  0  0  0  0  0  0  0  0
   10.5815    3.1138    0.2800 H   0  0  0  0  0  0  0  0  0  0  0  0
   11.2123    4.2253   -0.9973 H   0  0  0  0  0  0  0  0  0  0  0  0
    8.9457    4.5749   -0.6045 H   0  0  0  0  0  0  0  0  0  0  0  0
    6.6973    5.1861   -1.2593 H   0  0  0  0  0  0  0  0  0  0  0  0
    4.4259    3.3410   -2.5068 H   0  0  0  0  0  0  0  0  0  0  0  0
    4.8738    3.5848   -4.1727 H   0  0  0  0  0  0  0  0  0  0  0  0
    2.9234    9.7214   -2.9903 H   0  0  0  0  0  0  0  0  0  0  0  0
    1.6104   11.3140   -1.9589 H   0  0  0  0  0  0  0  0  0  0  0  0
    0.2030   11.8939   -0.1125 H   0  0  0  0  0  0  0  0  0  0  0  0
   -1.3276    9.3600    2.2115 H   0  0  0  0  0  0  0  0  0  0  0  0
   -1.5565   10.7011    4.0038 H   0  0  0  0  0  0  0  0  0  0  0  0
   -1.3783   12.1940    5.8597 H   0  0  0  0  0  0  0  0  0  0  0  0
   -1.9690   14.3544    6.8606 H   0  0  0  0  0  0  0  0  0  0  0  0
   -3.3563   13.3668    2.2178 H   0  0  0  0  0  0  0  0  0  0  0  0
   -0.3616    7.7088    0.8037 H   0  0  0  0  0  0  0  0  0  0  0  0
    1.0324    7.1359   -1.0956 H   0  0  0  0  0  0  0  0  0  0  0  0
    3.5133    9.3597   -5.0883 H   0  0  0  0  0  0  0  0  0  0  0  0
    4.9255    8.8978   -7.0342 H   0  0  0  0  0  0  0  0  0  0  0  0
    6.2620    6.8137   -7.1439 H   0  0  0  0  0  0  0  0  0  0  0  0
    6.1523    5.1820   -5.3308 H   0  0  0  0  0  0  0  0  0  0  0  0
    6.6232    1.9209   -4.0843 H   0  0  0  0  0  0  0  0  0  0  0  0
    8.9009    1.2951   -3.3989 H   0  0  0  0  0  0  0  0  0  0  0  0
  1  2  1  0  0  0  0
  1 42  1  0  0  0  0
  1 43  1  0  0  0  0
  1 44  1  0  0  0  0
  2  3  1  0  0  0  0
  3  4  1  0  0  0  0
  3 41  2  0  0  0  0
  4  5  2  0  0  0  0
  4 45  1  0  0  0  0
  5  6  1  0  0  0  0
  5 46  1  0  0  0  0
  6  7  1  0  0  0  0
  6 40  2  0  0  0  0
  7  8  1  0  0  0  0
  7 47  1  0  0  0  0
  7 48  1  0  0  0  0
  8  9  1  0  0  0  0
  8 39  2  0  0  0  0
  9 10  2  0  0  0  0
 10 11  1  0  0  0  0
 11 12  1  0  0  0  0
 11 34  2  0  0  0  0
 12 13  1  0  0  0  0
 12 49  1  0  0  0  0
 13 14  1  0  0  0  0
 13 33  2  0  0  0  0
 14 15  2  0  0  0  0
 14 50  1  0  0  0  0
 15 16  1  0  0  0  0
 15 51  1  0  0  0  0
 16 17  1  0  0  0  0
 16 32  2  0  0  0  0
 17 18  1  0  0  0  0
 17 52  1  0  0  0  0
 18 19  2  0  0  0  0
 18 20  1  0  0  0  0
 20 21  1  0  0  0  0
 20 53  1  0  0  0  0
 21 22  1  0  0  0  0
 21 31  2  0  0  0  0
 22 23  2  0  0  0  0
 22 54  1  0  0  0  0
 23 24  1  0  0  0  0
 23 55  1  0  0  0  0
 24 25  1  0  0  0  0
 24 26  2  0  0  0  0
 26 27  1  0  0  0  0
 26 31  1  0  0  0  0
 27 28  1  0  0  0  0
 27 29  1  0  0  0  0
 27 30  1  0  0  0  0
 31 56  1  0  0  0  0
 32 33  1  0  0  0  0
 32 57  1  0  0  0  0
 33 58  1  0  0  0  0
 34 35  1  0  0  0  0
 34 39  1  0  0  0  0
 35 36  2  0  0  0  0
 35 59  1  0  0  0  0
 36 37  1  0  0  0  0
 36 60  1  0  0  0  0
 37 38  2  0  0  0  0
 37 61  1  0  0  0  0
 38 39  1  0  0  0  0
 38 62  1  0  0  0  0
 40 41  1  0  0  0  0
 40 63  1  0  0  0  0
 41 64  1  0  0  0  0
M  END
$$$$
