CHEMBL2031896
 OpenBabel04072215363D

 66 70  0  0  0  0  0  0  0  0999 V2000
    5.0147   -4.4459    2.9233 C   0  0  0  0  0  0  0  0  0  0  0  0
    4.9817   -5.0700    4.3179 C   0  0  0  0  0  0  0  0  0  0  0  0
    4.5165   -4.1247    5.4060 C   0  0  0  0  0  0  0  0  0  0  0  0
    4.7594   -2.7392    5.2553 C   0  0  0  0  0  0  0  0  0  0  0  0
    4.0939   -1.7650    6.0331 C   0  0  0  0  0  0  0  0  0  0  0  0
    4.1321   -0.3655    5.7677 C   0  0  0  0  0  0  0  0  0  0  0  0
    4.8544    0.0870    4.6728 O   0  0  0  0  0  0  0  0  0  0  0  0
    4.4237    1.1903    3.9543 C   0  0  0  0  0  0  0  0  0  0  0  0
    5.4160    2.0375    3.4600 C   0  0  0  0  0  0  0  0  0  0  0  0
    5.0821    3.1603    2.6741 C   0  0  0  0  0  0  0  0  0  0  0  0
    3.7520    3.4556    2.3427 C   0  0  0  0  0  0  0  0  0  0  0  0
    3.3624    4.5576    1.5216 N   0  0  0  0  0  0  0  0  0  0  0  0
    4.1613    5.6368    1.1760 C   0  0  0  0  0  0  0  0  0  0  0  0
    5.2772    5.8332    1.6522 O   0  0  0  0  0  0  0  0  0  0  0  0
    3.6167    6.5846    0.1609 C   0  0  0  0  0  0  0  0  0  0  0  0
    4.1875    7.7212   -0.3048 C   0  0  0  0  0  0  0  0  0  0  0  0
    5.4079    8.4183    0.2136 C   0  0  0  0  0  0  0  0  0  0  0  0
    3.5000    8.2510   -1.4026 N   0  0  0  0  0  0  0  0  0  0  0  0
    3.5496    9.6396   -1.8574 C   0  0  0  0  0  0  0  0  0  0  0  0
    2.2870    7.5576   -1.4824 N   0  0  0  0  0  0  0  0  0  0  0  0
    1.3519    7.7574   -2.5115 C   0  0  0  0  0  0  0  0  0  0  0  0
    0.0107    7.9749   -2.1817 C   0  0  0  0  0  0  0  0  0  0  0  0
   -0.9256    8.2644   -3.1812 C   0  0  0  0  0  0  0  0  0  0  0  0
   -0.5417    8.2931   -4.5138 C   0  0  0  0  0  0  0  0  0  0  0  0
    0.7975    8.0584   -4.8613 C   0  0  0  0  0  0  0  0  0  0  0  0
    1.7445    7.8154   -3.8566 C   0  0  0  0  0  0  0  0  0  0  0  0
    2.3215    6.4850   -0.5797 C   0  0  0  0  0  0  0  0  0  0  0  0
    1.5027    5.6005   -0.3815 O   0  0  0  0  0  0  0  0  0  0  0  0
    2.7641    2.5860    2.8157 C   0  0  0  0  0  0  0  0  0  0  0  0
    3.0995    1.4690    3.6044 C   0  0  0  0  0  0  0  0  0  0  0  0
    2.1029    0.6705    4.0124 F   0  0  0  0  0  0  0  0  0  0  0  0
    3.4736    0.5119    6.6203 C   0  0  0  0  0  0  0  0  0  0  0  0
    2.7259   -0.0295    7.6457 C   0  0  0  0  0  0  0  0  0  0  0  0
    2.6284   -1.3516    7.8983 N   0  0  0  0  0  0  0  0  0  0  0  0
    3.2953   -2.2049    7.1029 C   0  0  0  0  0  0  0  0  0  0  0  0
    3.1605   -3.5712    7.3260 C   0  0  0  0  0  0  0  0  0  0  0  0
    3.7489   -4.5414    6.5006 C   0  0  0  0  0  0  0  0  0  0  0  0
    3.3617   -5.8198    6.8070 O   0  0  0  0  0  0  0  0  0  0  0  0
    4.3224   -6.8635    6.6955 C   0  0  0  0  0  0  0  0  0  0  0  0
    5.1007   -5.2222    2.1585 H   0  0  0  0  0  0  0  0  0  0  0  0
    5.8689   -3.7713    2.8077 H   0  0  0  0  0  0  0  0  0  0  0  0
    4.0977   -3.8774    2.7263 H   0  0  0  0  0  0  0  0  0  0  0  0
    5.9650   -5.4810    4.5721 H   0  0  0  0  0  0  0  0  0  0  0  0
    4.2703   -5.8966    4.2407 H   0  0  0  0  0  0  0  0  0  0  0  0
    5.4186   -2.3911    4.4635 H   0  0  0  0  0  0  0  0  0  0  0  0
    6.4629    1.8323    3.6722 H   0  0  0  0  0  0  0  0  0  0  0  0
    5.9052    3.7681    2.3048 H   0  0  0  0  0  0  0  0  0  0  0  0
    2.4068    4.5547    1.1643 H   0  0  0  0  0  0  0  0  0  0  0  0
    5.9512    7.8709    0.9818 H   0  0  0  0  0  0  0  0  0  0  0  0
    5.1131    9.3738    0.6686 H   0  0  0  0  0  0  0  0  0  0  0  0
    6.1091    8.6274   -0.5988 H   0  0  0  0  0  0  0  0  0  0  0  0
    4.3747   10.1988   -1.4046 H   0  0  0  0  0  0  0  0  0  0  0  0
    2.6245   10.1797   -1.6297 H   0  0  0  0  0  0  0  0  0  0  0  0
    3.7177    9.6697   -2.9396 H   0  0  0  0  0  0  0  0  0  0  0  0
   -0.3035    7.9803   -1.1414 H   0  0  0  0  0  0  0  0  0  0  0  0
   -1.9591    8.4710   -2.9111 H   0  0  0  0  0  0  0  0  0  0  0  0
   -1.2704    8.4951   -5.2928 H   0  0  0  0  0  0  0  0  0  0  0  0
    1.0963    8.0654   -5.9057 H   0  0  0  0  0  0  0  0  0  0  0  0
    2.7791    7.6323   -4.1370 H   0  0  0  0  0  0  0  0  0  0  0  0
    1.7139    2.7586    2.5980 H   0  0  0  0  0  0  0  0  0  0  0  0
    3.5061    1.5845    6.4850 H   0  0  0  0  0  0  0  0  0  0  0  0
    2.1502    0.6093    8.3098 H   0  0  0  0  0  0  0  0  0  0  0  0
    2.5262   -3.8971    8.1484 H   0  0  0  0  0  0  0  0  0  0  0  0
    4.0772   -7.6236    7.4456 H   0  0  0  0  0  0  0  0  0  0  0  0
    5.3473   -6.5281    6.8777 H   0  0  0  0  0  0  0  0  0  0  0  0
    4.2345   -7.3567    5.7236 H   0  0  0  0  0  0  0  0  0  0  0  0
  1  2  1  0  0  0  0
  1 40  1  0  0  0  0
  1 41  1  0  0  0  0
  1 42  1  0  0  0  0
  2  3  1  0  0  0  0
  2 43  1  0  0  0  0
  2 44  1  0  0  0  0
  3  4  1  0  0  0  0
  3 37  2  0  0  0  0
  4  5  2  0  0  0  0
  4 45  1  0  0  0  0
  5  6  1  0  0  0  0
  5 35  1  0  0  0  0
  6  7  1  0  0  0  0
  6 32  2  0  0  0  0
  7  8  1  0  0  0  0
  8  9  1  0  0  0  0
  8 30  2  0  0  0  0
  9 10  2  0  0  0  0
  9 46  1  0  0  0  0
 10 11  1  0  0  0  0
 10 47  1  0  0  0  0
 11 12  1  0  0  0  0
 11 29  2  0  0  0  0
 12 13  1  0  0  0  0
 12 48  1  0  0  0  0
 13 14  2  0  0  0  0
 13 15  1  0  0  0  0
 15 16  2  0  0  0  0
 15 27  1  0  0  0  0
 16 17  1  0  0  0  0
 16 18  1  0  0  0  0
 17 49  1  0  0  0  0
 17 50  1  0  0  0  0
 17 51  1  0  0  0  0
 18 19  1  0  0  0  0
 18 20  1  0  0  0  0
 19 52  1  0  0  0  0
 19 53  1  0  0  0  0
 19 54  1  0  0  0  0
 20 21  1  0  0  0  0
 20 27  1  0  0  0  0
 21 22  1  0  0  0  0
 21 26  2  0  0  0  0
 22 23  2  0  0  0  0
 22 55  1  0  0  0  0
 23 24  1  0  0  0  0
 23 56  1  0  0  0  0
 24 25  2  0  0  0  0
 24 57  1  0  0  0  0
 25 26  1  0  0  0  0
 25 58  1  0  0  0  0
 26 59  1  0  0  0  0
 27 28  2  0  0  0  0
 29 30  1  0  0  0  0
 29 60  1  0  0  0  0
 30 31  1  0  0  0  0
 32 33  1  0  0  0  0
 32 61  1  0  0  0  0
 33 34  2  0  0  0  0
 33 62  1  0  0  0  0
 34 35  1  0  0  0  0
 35 36  2  0  0  0  0
 36 37  1  0  0  0  0
 36 63  1  0  0  0  0
 37 38  1  0  0  0  0
 38 39  1  0  0  0  0
 39 64  1  0  0  0  0
 39 65  1  0  0  0  0
 39 66  1  0  0  0  0
M  END
$$$$
