CHEMBL1987143
 OpenBabel04072215363D

 26 28  0  0  0  0  0  0  0  0999 V2000
    1.1013    0.1068    0.2072 N   0  0  0  0  0  0  0  0  0  0  0  0
    2.4443    0.0260    0.1446 C   0  0  0  0  0  0  0  0  0  0  0  0
    3.1703   -1.0723    0.1281 N   0  0  0  0  0  0  0  0  0  0  0  0
    4.5007   -0.7173    0.0899 N   0  0  0  0  0  0  0  0  0  0  0  0
    4.5642    0.5954    0.0846 C   0  0  0  0  0  0  0  0  0  0  0  0
    5.6534    1.5055    0.0769 C   0  0  0  0  0  0  0  0  0  0  0  0
    5.4133    2.8323    0.0683 C   0  0  0  0  0  0  0  0  0  0  0  0
    4.0520    3.3719    0.0622 C   0  0  0  0  0  0  0  0  0  0  0  0
    3.7556    4.8126    0.0619 C   0  0  0  0  0  0  0  0  0  0  0  0
    3.6664    5.5100    1.2733 C   0  0  0  0  0  0  0  0  0  0  0  0
    3.3394    6.8675    1.2823 C   0  0  0  0  0  0  0  0  0  0  0  0
    3.1110    7.5385    0.0816 C   0  0  0  0  0  0  0  0  0  0  0  0
    3.2245    6.8577   -1.1299 C   0  0  0  0  0  0  0  0  0  0  0  0
    3.5482    5.4982   -1.1415 C   0  0  0  0  0  0  0  0  0  0  0  0
    3.0217    2.4991    0.0839 C   0  0  0  0  0  0  0  0  0  0  0  0
    3.2822    1.1275    0.1008 N   0  0  0  0  0  0  0  0  0  0  0  0
    0.5820   -0.7575    0.0729 H   0  0  0  0  0  0  0  0  0  0  0  0
    0.5858    0.9479   -0.0162 H   0  0  0  0  0  0  0  0  0  0  0  0
    6.6622    1.1086    0.0878 H   0  0  0  0  0  0  0  0  0  0  0  0
    6.2388    3.5387    0.0721 H   0  0  0  0  0  0  0  0  0  0  0  0
    3.8430    4.9983    2.2167 H   0  0  0  0  0  0  0  0  0  0  0  0
    3.2581    7.4002    2.2264 H   0  0  0  0  0  0  0  0  0  0  0  0
    2.8465    8.5931    0.0905 H   0  0  0  0  0  0  0  0  0  0  0  0
    3.0566    7.3848   -2.0657 H   0  0  0  0  0  0  0  0  0  0  0  0
    3.6318    4.9793   -2.0936 H   0  0  0  0  0  0  0  0  0  0  0  0
    1.9837    2.8050    0.0950 H   0  0  0  0  0  0  0  0  0  0  0  0
  1  2  1  0  0  0  0
  1 17  1  0  0  0  0
  1 18  1  0  0  0  0
  2  3  2  0  0  0  0
  2 16  1  0  0  0  0
  3  4  1  0  0  0  0
  4  5  2  0  0  0  0
  5  6  1  0  0  0  0
  5 16  1  0  0  0  0
  6  7  2  0  0  0  0
  6 19  1  0  0  0  0
  7  8  1  0  0  0  0
  7 20  1  0  0  0  0
  8  9  1  0  0  0  0
  8 15  2  0  0  0  0
  9 10  1  0  0  0  0
  9 14  2  0  0  0  0
 10 11  2  0  0  0  0
 10 21  1  0  0  0  0
 11 12  1  0  0  0  0
 11 22  1  0  0  0  0
 12 13  2  0  0  0  0
 12 23  1  0  0  0  0
 13 14  1  0  0  0  0
 13 24  1  0  0  0  0
 14 25  1  0  0  0  0
 15 16  1  0  0  0  0
 15 26  1  0  0  0  0
M  END
$$$$
