CHEMBL3936457
 OpenBabel04072215373D

 71 75  0  0  0  0  0  0  0  0999 V2000
   -1.4148    1.9395   -0.8393 C   0  0  0  0  0  0  0  0  0  0  0  0
   -0.7500    1.8918   -2.1461 N   0  0  0  0  0  0  0  0  0  0  0  0
    0.6553    1.4945   -1.9680 C   0  0  0  0  0  0  0  0  0  0  0  0
    1.3772    1.3757   -3.3091 C   0  0  0  0  0  0  0  0  0  0  0  0
    0.7014    0.3363   -4.2107 C   0  0  0  0  0  0  0  0  0  0  0  0
    0.7214   -1.0199   -3.6253 N   0  0  0  0  0  0  0  0  0  0  0  0
    1.9648   -1.6060   -3.3673 C   0  0  0  0  0  0  0  0  0  0  0  0
    2.0436   -2.5679   -2.3629 C   0  0  0  0  0  0  0  0  0  0  0  0
    3.2771   -3.1601   -2.0604 C   0  0  0  0  0  0  0  0  0  0  0  0
    3.4638   -4.0728   -0.8835 C   0  0  0  0  0  0  0  0  0  0  0  0
    2.3150   -4.3295   -0.2020 F   0  0  0  0  0  0  0  0  0  0  0  0
    3.9708   -5.2843   -1.2391 F   0  0  0  0  0  0  0  0  0  0  0  0
    4.3338   -3.5590    0.0323 F   0  0  0  0  0  0  0  0  0  0  0  0
    4.3662   -2.8630   -2.8771 C   0  0  0  0  0  0  0  0  0  0  0  0
    4.1580   -1.9948   -3.9250 C   0  0  0  0  0  0  0  0  0  0  0  0
    5.1638   -1.6803   -4.8175 N   0  0  0  0  0  0  0  0  0  0  0  0
    6.0233   -2.5636   -5.4033 C   0  0  0  0  0  0  0  0  0  0  0  0
    5.9133   -3.7832   -5.3566 O   0  0  0  0  0  0  0  0  0  0  0  0
    7.0067   -1.9797   -6.1756 N   0  0  0  0  0  0  0  0  0  0  0  0
    7.3664   -0.6188   -6.2194 C   0  0  0  0  0  0  0  0  0  0  0  0
    7.0359    0.2726   -5.1887 C   0  0  0  0  0  0  0  0  0  0  0  0
    7.0641    1.6413   -5.3933 C   0  0  0  0  0  0  0  0  0  0  0  0
    7.5941    2.1388   -6.5741 C   0  0  0  0  0  0  0  0  0  0  0  0
    7.5036    3.4998   -6.7149 O   0  0  0  0  0  0  0  0  0  0  0  0
    8.5455    4.1861   -7.2815 C   0  0  0  0  0  0  0  0  0  0  0  0
    9.8708    3.7740   -7.2117 C   0  0  0  0  0  0  0  0  0  0  0  0
   10.8028    4.5385   -7.8651 C   0  0  0  0  0  0  0  0  0  0  0  0
   10.4963    5.6755   -8.5101 N   0  0  0  0  0  0  0  0  0  0  0  0
    9.2215    6.1015   -8.5327 C   0  0  0  0  0  0  0  0  0  0  0  0
    8.9052    7.3028   -9.1941 N   0  0  0  0  0  0  0  0  0  0  0  0
    9.8475    8.0797   -9.8205 C   0  0  0  0  0  0  0  0  0  0  0  0
   11.0479    7.8540   -9.9093 O   0  0  0  0  0  0  0  0  0  0  0  0
    9.3481    9.3208  -10.4577 C   0  0  0  0  0  0  0  0  0  0  0  0
    9.9968    9.8152  -11.7352 C   0  0  0  0  0  0  0  0  0  0  0  0
   10.2247   10.5598  -10.4534 C   0  0  0  0  0  0  0  0  0  0  0  0
    8.2091    5.3805   -7.9214 C   0  0  0  0  0  0  0  0  0  0  0  0
    8.0983    1.2473   -7.5298 C   0  0  0  0  0  0  0  0  0  0  0  0
    8.6618    1.6906   -8.6623 F   0  0  0  0  0  0  0  0  0  0  0  0
    8.0014   -0.1312   -7.3547 C   0  0  0  0  0  0  0  0  0  0  0  0
    3.0215   -1.3010   -4.1227 N   0  0  0  0  0  0  0  0  0  0  0  0
   -0.7601    0.7787   -4.3877 C   0  0  0  0  0  0  0  0  0  0  0  0
   -1.4651    0.9647   -3.0379 C   0  0  0  0  0  0  0  0  0  0  0  0
   -0.8975    2.6316   -0.1653 H   0  0  0  0  0  0  0  0  0  0  0  0
   -1.4449    0.9547   -0.3569 H   0  0  0  0  0  0  0  0  0  0  0  0
   -2.4426    2.3039   -0.9406 H   0  0  0  0  0  0  0  0  0  0  0  0
    0.7300    0.5486   -1.4163 H   0  0  0  0  0  0  0  0  0  0  0  0
    1.1727    2.2545   -1.3701 H   0  0  0  0  0  0  0  0  0  0  0  0
    2.4336    1.1428   -3.1423 H   0  0  0  0  0  0  0  0  0  0  0  0
    1.3569    2.3524   -3.8132 H   0  0  0  0  0  0  0  0  0  0  0  0
    1.1842    0.3233   -5.1964 H   0  0  0  0  0  0  0  0  0  0  0  0
    0.2148   -1.6782   -4.2164 H   0  0  0  0  0  0  0  0  0  0  0  0
    1.1563   -2.8122   -1.7841 H   0  0  0  0  0  0  0  0  0  0  0  0
    5.3489   -3.2841   -2.6728 H   0  0  0  0  0  0  0  0  0  0  0  0
    4.9133   -0.8860   -5.3848 H   0  0  0  0  0  0  0  0  0  0  0  0
    7.3876   -2.6139   -6.8690 H   0  0  0  0  0  0  0  0  0  0  0  0
    6.6900   -0.0753   -4.2183 H   0  0  0  0  0  0  0  0  0  0  0  0
    6.6575    2.3079   -4.6369 H   0  0  0  0  0  0  0  0  0  0  0  0
   10.1821    2.8697   -6.7048 H   0  0  0  0  0  0  0  0  0  0  0  0
   11.8492    4.2540   -7.9002 H   0  0  0  0  0  0  0  0  0  0  0  0
    7.9452    7.6032   -9.1983 H   0  0  0  0  0  0  0  0  0  0  0  0
    8.2811    9.4978  -10.3696 H   0  0  0  0  0  0  0  0  0  0  0  0
    9.3764   10.2817  -12.4893 H   0  0  0  0  0  0  0  0  0  0  0  0
   10.8280    9.2424  -12.1383 H   0  0  0  0  0  0  0  0  0  0  0  0
    9.7581   11.5302  -10.3419 H   0  0  0  0  0  0  0  0  0  0  0  0
   11.2095   10.4867   -9.9993 H   0  0  0  0  0  0  0  0  0  0  0  0
    7.1774    5.7106   -7.9349 H   0  0  0  0  0  0  0  0  0  0  0  0
    8.3654   -0.7860   -8.1396 H   0  0  0  0  0  0  0  0  0  0  0  0
   -1.3143    0.0516   -4.9930 H   0  0  0  0  0  0  0  0  0  0  0  0
   -0.7848    1.7299   -4.9368 H   0  0  0  0  0  0  0  0  0  0  0  0
   -1.5959   -0.0146   -2.5593 H   0  0  0  0  0  0  0  0  0  0  0  0
   -2.4697    1.3612   -3.2319 H   0  0  0  0  0  0  0  0  0  0  0  0
  1  2  1  0  0  0  0
  1 43  1  0  0  0  0
  1 44  1  0  0  0  0
  1 45  1  0  0  0  0
  2  3  1  0  0  0  0
  2 42  1  0  0  0  0
  3  4  1  0  0  0  0
  3 46  1  0  0  0  0
  3 47  1  0  0  0  0
  4  5  1  0  0  0  0
  4 48  1  0  0  0  0
  4 49  1  0  0  0  0
  5  6  1  0  0  0  0
  5 41  1  0  0  0  0
  5 50  1  0  0  0  0
  6  7  1  0  0  0  0
  6 51  1  0  0  0  0
  7  8  1  0  0  0  0
  7 40  2  0  0  0  0
  8  9  2  0  0  0  0
  8 52  1  0  0  0  0
  9 10  1  0  0  0  0
  9 14  1  0  0  0  0
 10 11  1  0  0  0  0
 10 12  1  0  0  0  0
 10 13  1  0  0  0  0
 14 15  2  0  0  0  0
 14 53  1  0  0  0  0
 15 16  1  0  0  0  0
 15 40  1  0  0  0  0
 16 17  1  0  0  0  0
 16 54  1  0  0  0  0
 17 18  2  0  0  0  0
 17 19  1  0  0  0  0
 19 20  1  0  0  0  0
 19 55  1  0  0  0  0
 20 21  1  0  0  0  0
 20 39  2  0  0  0  0
 21 22  2  0  0  0  0
 21 56  1  0  0  0  0
 22 23  1  0  0  0  0
 22 57  1  0  0  0  0
 23 24  1  0  0  0  0
 23 37  2  0  0  0  0
 24 25  1  0  0  0  0
 25 26  1  0  0  0  0
 25 36  2  0  0  0  0
 26 27  2  0  0  0  0
 26 58  1  0  0  0  0
 27 28  1  0  0  0  0
 27 59  1  0  0  0  0
 28 29  2  0  0  0  0
 29 30  1  0  0  0  0
 29 36  1  0  0  0  0
 30 31  1  0  0  0  0
 30 60  1  0  0  0  0
 31 32  2  0  0  0  0
 31 33  1  0  0  0  0
 33 34  1  0  0  0  0
 33 35  1  0  0  0  0
 33 61  1  0  0  0  0
 34 35  1  0  0  0  0
 34 62  1  0  0  0  0
 34 63  1  0  0  0  0
 35 64  1  0  0  0  0
 35 65  1  0  0  0  0
 36 66  1  0  0  0  0
 37 38  1  0  0  0  0
 37 39  1  0  0  0  0
 39 67  1  0  0  0  0
 41 42  1  0  0  0  0
 41 68  1  0  0  0  0
 41 69  1  0  0  0  0
 42 70  1  0  0  0  0
 42 71  1  0  0  0  0
M  END
$$$$
