CHEMBL1290136
 OpenBabel04072215363D

 41 44  0  0  1  0  0  0  0  0999 V2000
    2.8746    1.1255   -1.9518 C   0  0  0  0  0  0  0  0  0  0  0  0
    2.7026    0.4974   -0.5671 C   0  0  2  0  0  0  0  0  0  0  0  0
    3.1896    1.3976    0.4328 O   0  0  0  0  0  0  0  0  0  0  0  0
    4.5374    1.2947    0.6600 C   0  0  0  0  0  0  0  0  0  0  0  0
    5.1440    2.3422    1.3493 C   0  0  0  0  0  0  0  0  0  0  0  0
    6.5226    2.3154    1.5898 C   0  0  0  0  0  0  0  0  0  0  0  0
    7.2993    1.2407    1.1338 C   0  0  0  0  0  0  0  0  0  0  0  0
    8.7464    1.2045    1.2860 C   0  0  0  0  0  0  0  0  0  0  0  0
    9.4563    1.7374    2.3450 C   0  0  0  0  0  0  0  0  0  0  0  0
   11.1364    1.4172    2.1339 S   0  0  0  0  0  0  0  0  0  0  0  0
   10.7835    0.6626    0.6449 C   0  0  0  0  0  0  0  0  0  0  0  0
   11.8724    0.2200   -0.0558 N   0  0  0  0  0  0  0  0  0  0  0  0
   11.7470   -0.2140   -1.3579 C   0  0  0  0  0  0  0  0  0  0  0  0
   10.7289   -0.2238   -2.0395 O   0  0  0  0  0  0  0  0  0  0  0  0
   13.0085   -0.6592   -2.0104 C   0  0  0  0  0  0  0  0  0  0  0  0
   14.0124   -1.3331   -1.3021 C   0  0  0  0  0  0  0  0  0  0  0  0
   15.1614   -1.7656   -1.9697 C   0  0  0  0  0  0  0  0  0  0  0  0
   15.3057   -1.5294   -3.3392 C   0  0  0  0  0  0  0  0  0  0  0  0
   14.3025   -0.8681   -4.0406 C   0  0  0  0  0  0  0  0  0  0  0  0
   14.4826   -0.5847   -5.7295 Cl  0  0  0  0  0  0  0  0  0  0  0  0
   13.1525   -0.4326   -3.3852 C   0  0  0  0  0  0  0  0  0  0  0  0
    9.5210    0.5790    0.3275 N   0  0  0  0  0  0  0  0  0  0  0  0
    6.6712    0.1725    0.4744 C   0  0  0  0  0  0  0  0  0  0  0  0
    5.2974    0.1931    0.2600 C   0  0  0  0  0  0  0  0  0  0  0  0
    4.6709   -0.9160   -0.3111 N   0  0  0  0  0  0  0  0  0  0  0  0
    3.3279   -0.9006   -0.5852 C   0  0  0  0  0  0  0  0  0  0  0  0
    2.7232   -1.9150   -0.9247 O   0  0  0  0  0  0  0  0  0  0  0  0
    2.3743    2.0994   -2.0008 H   0  0  0  0  0  0  0  0  0  0  0  0
    2.4677    0.4765   -2.7339 H   0  0  0  0  0  0  0  0  0  0  0  0
    3.9321    1.3008   -2.1859 H   0  0  0  0  0  0  0  0  0  0  0  0
    1.6324    0.3665   -0.3658 H   0  0  0  0  0  0  0  0  0  0  0  0
    4.5476    3.1857    1.6875 H   0  0  0  0  0  0  0  0  0  0  0  0
    6.9783    3.1574    2.1041 H   0  0  0  0  0  0  0  0  0  0  0  0
    9.0934    2.2618    3.2169 H   0  0  0  0  0  0  0  0  0  0  0  0
   12.7732    0.3460    0.3769 H   0  0  0  0  0  0  0  0  0  0  0  0
   13.9003   -1.5645   -0.2467 H   0  0  0  0  0  0  0  0  0  0  0  0
   15.9379   -2.3013   -1.4286 H   0  0  0  0  0  0  0  0  0  0  0  0
   16.1994   -1.8764   -3.8545 H   0  0  0  0  0  0  0  0  0  0  0  0
   12.3660    0.0737   -3.9399 H   0  0  0  0  0  0  0  0  0  0  0  0
    7.2684   -0.6637    0.1158 H   0  0  0  0  0  0  0  0  0  0  0  0
    5.1686   -1.7864   -0.4440 H   0  0  0  0  0  0  0  0  0  0  0  0
  1 28  1  0  0  0  0
  1 29  1  0  0  0  0
  1 30  1  0  0  0  0
  2  3  1  0  0  0  0
  2 26  1  0  0  0  0
  2  1  1  0  0  0  0
  2 31  1  1  0  0  0
  3  4  1  0  0  0  0
  4  5  1  0  0  0  0
  4 24  2  0  0  0  0
  5  6  2  0  0  0  0
  5 32  1  0  0  0  0
  6  7  1  0  0  0  0
  6 33  1  0  0  0  0
  7  8  1  0  0  0  0
  7 23  2  0  0  0  0
  8  9  2  0  0  0  0
  8 22  1  0  0  0  0
  9 10  1  0  0  0  0
  9 34  1  0  0  0  0
 10 11  1  0  0  0  0
 11 12  1  0  0  0  0
 11 22  2  0  0  0  0
 12 13  1  0  0  0  0
 12 35  1  0  0  0  0
 13 14  2  0  0  0  0
 13 15  1  0  0  0  0
 15 16  1  0  0  0  0
 15 21  2  0  0  0  0
 16 17  2  0  0  0  0
 16 36  1  0  0  0  0
 17 18  1  0  0  0  0
 17 37  1  0  0  0  0
 18 19  2  0  0  0  0
 18 38  1  0  0  0  0
 19 20  1  0  0  0  0
 19 21  1  0  0  0  0
 21 39  1  0  0  0  0
 23 24  1  0  0  0  0
 23 40  1  0  0  0  0
 24 25  1  0  0  0  0
 25 26  1  0  0  0  0
 25 41  1  0  0  0  0
 26 27  2  0  0  0  0
M  END
$$$$
