CHEMBL3586072
 OpenBabel04072215363D

 47 49  0  0  0  0  0  0  0  0999 V2000
    1.2210    2.1769    0.7852 C   0  0  0  0  0  0  0  0  0  0  0  0
    2.6424    2.0348    0.6378 N   0  0  0  0  0  0  0  0  0  0  0  0
    3.1927    1.2120   -0.3202 C   0  0  0  0  0  0  0  0  0  0  0  0
    2.5318    0.5582   -1.1191 O   0  0  0  0  0  0  0  0  0  0  0  0
    4.6903    1.1693   -0.3198 C   0  0  0  0  0  0  0  0  0  0  0  0
    5.3459    0.4047   -1.2683 C   0  0  0  0  0  0  0  0  0  0  0  0
    6.7392    0.3946   -1.2529 C   0  0  0  0  0  0  0  0  0  0  0  0
    7.4621    1.1566   -0.3162 C   0  0  0  0  0  0  0  0  0  0  0  0
    8.9394    1.2273   -0.3579 C   0  0  0  0  0  0  0  0  0  0  0  0
    9.6023    1.1676   -1.5900 C   0  0  0  0  0  0  0  0  0  0  0  0
   10.9939    1.2251   -1.6855 C   0  0  0  0  0  0  0  0  0  0  0  0
   11.7886    1.3728   -0.5565 C   0  0  0  0  0  0  0  0  0  0  0  0
   13.2092    1.4324   -0.6174 N   0  0  0  0  0  0  0  0  0  0  0  0
   13.9587    1.4652   -1.7814 C   0  0  0  0  0  0  0  0  0  0  0  0
   13.4987    1.5521   -2.9178 O   0  0  0  0  0  0  0  0  0  0  0  0
   15.3189    1.3466   -1.5438 N   0  0  0  0  0  0  0  0  0  0  0  0
   16.2290    1.3236   -2.6326 C   0  0  0  0  0  0  0  0  0  0  0  0
   17.2053    0.3291   -2.6729 C   0  0  0  0  0  0  0  0  0  0  0  0
   18.0466    0.2363   -3.7822 C   0  0  0  0  0  0  0  0  0  0  0  0
   19.2988   -1.1777   -3.8874 Br  0  0  0  0  0  0  0  0  0  0  0  0
   17.9569    1.1513   -4.8323 C   0  0  0  0  0  0  0  0  0  0  0  0
   17.0020    2.1758   -4.7900 C   0  0  0  0  0  0  0  0  0  0  0  0
   16.8840    3.1797   -5.9108 C   0  0  0  0  0  0  0  0  0  0  0  0
   17.7890    2.9806   -6.9108 F   0  0  0  0  0  0  0  0  0  0  0  0
   15.6623    3.1665   -6.5094 F   0  0  0  0  0  0  0  0  0  0  0  0
   17.0820    4.4586   -5.4855 F   0  0  0  0  0  0  0  0  0  0  0  0
   16.1391    2.2491   -3.6834 C   0  0  0  0  0  0  0  0  0  0  0  0
   11.1565    1.4456    0.6873 C   0  0  0  0  0  0  0  0  0  0  0  0
    9.7491    1.3691    0.7834 C   0  0  0  0  0  0  0  0  0  0  0  0
    6.6897    1.8769    0.5989 C   0  0  0  0  0  0  0  0  0  0  0  0
    5.3310    1.9055    0.6309 N   0  0  0  0  0  0  0  0  0  0  0  0
    1.0171    2.8680    1.6057 H   0  0  0  0  0  0  0  0  0  0  0  0
    0.7825    1.1984    1.0000 H   0  0  0  0  0  0  0  0  0  0  0  0
    0.7987    2.5629   -0.1465 H   0  0  0  0  0  0  0  0  0  0  0  0
    3.2905    2.5383    1.2376 H   0  0  0  0  0  0  0  0  0  0  0  0
    4.7926   -0.1620   -2.0109 H   0  0  0  0  0  0  0  0  0  0  0  0
    7.2518   -0.2134   -1.9952 H   0  0  0  0  0  0  0  0  0  0  0  0
    9.0460    1.0882   -2.5238 H   0  0  0  0  0  0  0  0  0  0  0  0
   11.4039    1.1510   -2.6869 H   0  0  0  0  0  0  0  0  0  0  0  0
   13.7029    1.5838    0.2491 H   0  0  0  0  0  0  0  0  0  0  0  0
   15.5496    0.7598   -0.7533 H   0  0  0  0  0  0  0  0  0  0  0  0
   17.2687   -0.4148   -1.8842 H   0  0  0  0  0  0  0  0  0  0  0  0
   18.6217    1.0640   -5.6903 H   0  0  0  0  0  0  0  0  0  0  0  0
   15.3833    3.0343   -3.6539 H   0  0  0  0  0  0  0  0  0  0  0  0
   11.7321    1.5555    1.6009 H   0  0  0  0  0  0  0  0  0  0  0  0
    9.3006    1.4119    1.7746 H   0  0  0  0  0  0  0  0  0  0  0  0
    7.1582    2.5054    1.3535 H   0  0  0  0  0  0  0  0  0  0  0  0
  1  2  1  0  0  0  0
  1 32  1  0  0  0  0
  1 33  1  0  0  0  0
  1 34  1  0  0  0  0
  2  3  1  0  0  0  0
  2 35  1  0  0  0  0
  3  4  2  0  0  0  0
  3  5  1  0  0  0  0
  5  6  1  0  0  0  0
  5 31  2  0  0  0  0
  6  7  2  0  0  0  0
  6 36  1  0  0  0  0
  7  8  1  0  0  0  0
  7 37  1  0  0  0  0
  8  9  1  0  0  0  0
  8 30  2  0  0  0  0
  9 10  1  0  0  0  0
  9 29  2  0  0  0  0
 10 11  2  0  0  0  0
 10 38  1  0  0  0  0
 11 12  1  0  0  0  0
 11 39  1  0  0  0  0
 12 13  1  0  0  0  0
 12 28  2  0  0  0  0
 13 14  1  0  0  0  0
 13 40  1  0  0  0  0
 14 15  2  0  0  0  0
 14 16  1  0  0  0  0
 16 17  1  0  0  0  0
 16 41  1  0  0  0  0
 17 18  1  0  0  0  0
 17 27  2  0  0  0  0
 18 19  2  0  0  0  0
 18 42  1  0  0  0  0
 19 20  1  0  0  0  0
 19 21  1  0  0  0  0
 21 22  2  0  0  0  0
 21 43  1  0  0  0  0
 22 23  1  0  0  0  0
 22 27  1  0  0  0  0
 23 24  1  0  0  0  0
 23 25  1  0  0  0  0
 23 26  1  0  0  0  0
 27 44  1  0  0  0  0
 28 29  1  0  0  0  0
 28 45  1  0  0  0  0
 29 46  1  0  0  0  0
 30 31  1  0  0  0  0
 30 47  1  0  0  0  0
M  END
$$$$
