CHEMBL3939018
 OpenBabel04072215373D

 65 69  0  0  0  0  0  0  0  0999 V2000
    3.3101   -0.5221   -2.0748 C   0  0  0  0  0  0  0  0  0  0  0  0
    3.4916    0.3985   -1.2743 C   0  0  0  0  0  0  0  0  0  0  0  0
    3.7258    1.5468   -0.2647 C   0  0  0  0  0  0  0  0  0  0  0  0
    4.4424    1.0184    1.0051 N   0  0  0  0  0  0  0  0  0  0  0  0
    3.6601    0.5499    2.0730 C   0  0  0  0  0  0  0  0  0  0  0  0
    4.1510   -0.4657    2.9019 C   0  0  0  0  0  0  0  0  0  0  0  0
    3.5462   -0.8347    4.0858 C   0  0  0  0  0  0  0  0  0  0  0  0
    4.0394   -1.7869    4.9325 O   0  0  0  0  0  0  0  0  0  0  0  0
    5.2623   -2.4102    4.5279 C   0  0  0  0  0  0  0  0  0  0  0  0
    2.4179   -0.1404    4.4781 C   0  0  0  0  0  0  0  0  0  0  0  0
    1.9338    0.9252    3.7186 C   0  0  0  0  0  0  0  0  0  0  0  0
    0.9916    1.8103    4.1765 O   0  0  0  0  0  0  0  0  0  0  0  0
    0.5223    1.5758    5.5083 C   0  0  0  0  0  0  0  0  0  0  0  0
    2.4741    1.1725    2.4535 C   0  0  0  0  0  0  0  0  0  0  0  0
    5.8585    1.2163    1.1002 C   0  0  0  0  0  0  0  0  0  0  0  0
    6.5138    1.2442   -0.0840 C   0  0  0  0  0  0  0  0  0  0  0  0
    7.8034    1.6026   -0.0579 C   0  0  0  0  0  0  0  0  0  0  0  0
    8.5772    1.7194    1.0426 C   0  0  0  0  0  0  0  0  0  0  0  0
    9.6158    1.1047    0.6425 N   0  0  0  0  0  0  0  0  0  0  0  0
   10.5738    1.9168    0.2728 C   0  0  0  0  0  0  0  0  0  0  0  0
   11.4201    2.4296    1.1675 C   0  0  0  0  0  0  0  0  0  0  0  0
   12.6609    2.2679   -0.1743 C   0  0  0  0  0  0  0  0  0  0  0  0
   12.8298    1.3359   -1.3759 C   0  0  0  0  0  0  0  0  0  0  0  0
   13.9048    1.4087   -2.2076 N   0  0  0  0  0  0  0  0  0  0  0  0
   14.6728    2.3734   -1.6782 N   0  0  0  0  0  0  0  0  0  0  0  0
   15.9908    2.7874   -2.3399 C   0  0  0  0  0  0  0  0  0  0  0  0
   15.7990    3.9147   -3.3607 C   0  0  0  0  0  0  0  0  0  0  0  0
   14.8522    3.4933   -4.4887 C   0  0  0  0  0  0  0  0  0  0  0  0
   14.9206    4.4799   -5.6324 C   0  0  0  0  0  0  0  0  0  0  0  0
   16.2684    4.7020   -6.0506 O   0  0  0  0  0  0  0  0  0  0  0  0
   17.0875    5.2620   -5.0263 C   0  0  0  0  0  0  0  0  0  0  0  0
   17.1894    4.3303   -3.8522 C   0  0  0  0  0  0  0  0  0  0  0  0
   13.9555    2.8651   -0.4574 C   0  0  0  0  0  0  0  0  0  0  0  0
   10.1919    2.4524    2.2754 N   0  0  0  0  0  0  0  0  0  0  0  0
    8.4654    2.0043    2.3059 C   0  0  0  0  0  0  0  0  0  0  0  0
    6.7447    1.5549    2.3115 C   0  0  0  0  0  0  0  0  0  0  0  0
    3.1442   -1.3455   -2.7857 H   0  0  0  0  0  0  0  0  0  0  0  0
    2.7556    2.0158   -0.0408 H   0  0  0  0  0  0  0  0  0  0  0  0
    4.3796    2.3069   -0.7198 H   0  0  0  0  0  0  0  0  0  0  0  0
    5.0470   -0.9867    2.6095 H   0  0  0  0  0  0  0  0  0  0  0  0
    5.5528   -3.1281    5.2970 H   0  0  0  0  0  0  0  0  0  0  0  0
    6.0811   -1.6854    4.4235 H   0  0  0  0  0  0  0  0  0  0  0  0
    5.1249   -2.9661    3.5944 H   0  0  0  0  0  0  0  0  0  0  0  0
    1.9220   -0.4346    5.3904 H   0  0  0  0  0  0  0  0  0  0  0  0
   -0.1796    2.3703    5.7705 H   0  0  0  0  0  0  0  0  0  0  0  0
    1.3285    1.5866    6.2566 H   0  0  0  0  0  0  0  0  0  0  0  0
   -0.0211    0.6261    5.5514 H   0  0  0  0  0  0  0  0  0  0  0  0
    1.9970    1.8700    1.7732 H   0  0  0  0  0  0  0  0  0  0  0  0
    6.1377    0.9981   -1.0574 H   0  0  0  0  0  0  0  0  0  0  0  0
    8.3782    1.5885   -0.9747 H   0  0  0  0  0  0  0  0  0  0  0  0
   10.6415    1.7812   -0.7958 H   0  0  0  0  0  0  0  0  0  0  0  0
   12.1468    0.5636   -1.6755 H   0  0  0  0  0  0  0  0  0  0  0  0
   16.4748    1.9324   -2.8741 H   0  0  0  0  0  0  0  0  0  0  0  0
   16.7591    3.1049   -1.6023 H   0  0  0  0  0  0  0  0  0  0  0  0
   15.3333    4.8042   -2.9029 H   0  0  0  0  0  0  0  0  0  0  0  0
   13.8309    3.3773   -4.1122 H   0  0  0  0  0  0  0  0  0  0  0  0
   15.0827    2.5093   -4.8894 H   0  0  0  0  0  0  0  0  0  0  0  0
   14.4657    5.4257   -5.3303 H   0  0  0  0  0  0  0  0  0  0  0  0
   14.3629    4.0783   -6.4843 H   0  0  0  0  0  0  0  0  0  0  0  0
   16.6812    6.2175   -4.6916 H   0  0  0  0  0  0  0  0  0  0  0  0
   18.0922    5.4179   -5.4311 H   0  0  0  0  0  0  0  0  0  0  0  0
   17.7770    4.7592   -3.0348 H   0  0  0  0  0  0  0  0  0  0  0  0
   17.7840    3.4785   -4.1747 H   0  0  0  0  0  0  0  0  0  0  0  0
   14.5348    3.6217    0.0230 H   0  0  0  0  0  0  0  0  0  0  0  0
    6.0949    1.3671    3.2151 H   0  0  0  0  0  0  0  0  0  0  0  0
  1  2  3  0  0  0  0
  1 37  1  0  0  0  0
  2  3  1  0  0  0  0
  3  4  1  0  0  0  0
  3 38  1  0  0  0  0
  3 39  1  0  0  0  0
  4  5  1  0  0  0  0
  4 15  1  0  0  0  0
  5  6  1  0  0  0  0
  5 14  2  0  0  0  0
  6  7  2  0  0  0  0
  6 40  1  0  0  0  0
  7  8  1  0  0  0  0
  7 10  1  0  0  0  0
  8  9  1  0  0  0  0
  9 41  1  0  0  0  0
  9 42  1  0  0  0  0
  9 43  1  0  0  0  0
 10 11  2  0  0  0  0
 10 44  1  0  0  0  0
 11 12  1  0  0  0  0
 11 14  1  0  0  0  0
 12 13  1  0  0  0  0
 13 45  1  0  0  0  0
 13 46  1  0  0  0  0
 13 47  1  0  0  0  0
 14 48  1  0  0  0  0
 15 16  1  0  0  0  0
 15 36  2  0  0  0  0
 16 17  2  0  0  0  0
 16 49  1  0  0  0  0
 17 18  1  0  0  0  0
 17 50  1  0  0  0  0
 18 19  1  0  0  0  0
 18 35  2  0  0  0  0
 19 20  2  0  0  0  0
 20 21  1  0  0  0  0
 20 51  1  0  0  0  0
 21 22  1  0  0  0  0
 21 34  2  0  0  0  0
 22 23  1  0  0  0  0
 22 33  2  0  0  0  0
 23 24  2  0  0  0  0
 23 52  1  0  0  0  0
 24 25  1  0  0  0  0
 25 26  1  0  0  0  0
 25 33  1  0  0  0  0
 26 27  1  0  0  0  0
 26 53  1  0  0  0  0
 26 54  1  0  0  0  0
 27 28  1  0  0  0  0
 27 32  1  0  0  0  0
 27 55  1  0  0  0  0
 28 29  1  0  0  0  0
 28 56  1  0  0  0  0
 28 57  1  0  0  0  0
 29 30  1  0  0  0  0
 29 58  1  0  0  0  0
 29 59  1  0  0  0  0
 30 31  1  0  0  0  0
 31 32  1  0  0  0  0
 31 60  1  0  0  0  0
 31 61  1  0  0  0  0
 32 62  1  0  0  0  0
 32 63  1  0  0  0  0
 33 64  1  0  0  0  0
 34 35  1  0  0  0  0
 35 36  1  0  0  0  0
 36 65  1  0  0  0  0
M  END
$$$$
