CHEMBL3979195
 OpenBabel04072215373D

 67 70  0  0  1  0  0  0  0  0999 V2000
    9.1298    7.3142  -10.3630 C   0  0  0  0  0  0  0  0  0  0  0  0
    8.3658    6.1826   -9.9457 O   0  0  0  0  0  0  0  0  0  0  0  0
    9.0892    5.0369   -9.8624 C   0  0  0  0  0  0  0  0  0  0  0  0
   10.2869    4.9418  -10.1188 O   0  0  0  0  0  0  0  0  0  0  0  0
    8.1944    3.9077   -9.4134 C   0  0  0  0  0  0  0  0  0  0  0  0
    8.9865    2.6169   -9.2882 C   0  0  0  0  0  0  0  0  0  0  0  0
    8.1174    1.4363   -8.8631 C   0  0  0  0  0  0  0  0  0  0  0  0
    8.9644    0.1623   -8.7424 C   0  0  0  0  0  0  0  0  0  0  0  0
   10.0204    0.2545   -7.7302 N   0  0  0  0  0  0  0  0  0  0  0  0
   10.8959   -0.9352   -7.7199 C   0  0  0  0  0  0  0  0  0  0  0  0
   10.2513   -2.1551   -7.0475 C   0  0  0  0  0  0  0  0  0  0  0  0
    9.8559   -1.8652   -5.7018 O   0  0  0  0  0  0  0  0  0  0  0  0
    8.9569   -0.7400   -5.6208 C   0  0  3  0  0  0  0  0  0  0  0  0
    7.5266   -1.1526   -6.0489 C   0  0  0  0  0  0  0  0  0  0  0  0
    6.9259   -2.1074   -5.1320 O   0  0  0  0  0  0  0  0  0  0  0  0
    6.6073   -1.6406   -3.8846 C   0  0  0  0  0  0  0  0  0  0  0  0
    6.4069   -0.2635   -3.6466 C   0  0  0  0  0  0  0  0  0  0  0  0
    6.2418    0.2708   -2.3886 C   0  0  0  0  0  0  0  0  0  0  0  0
    6.1351    1.5943   -2.2546 N   0  0  0  0  0  0  0  0  0  0  0  0
    6.0137    2.0519   -1.0093 C   0  0  0  0  0  0  0  0  0  0  0  0
    6.0185    1.3101    0.1007 N   0  0  0  0  0  0  0  0  0  0  0  0
    6.1194   -0.0230   -0.0451 C   0  0  0  0  0  0  0  0  0  0  0  0
    6.1564   -0.8695    1.1002 N   0  0  0  0  0  0  0  0  0  0  0  0
    5.9161   -0.4890    2.4356 C   0  0  0  0  0  0  0  0  0  0  0  0
    5.0703    0.5775    2.7579 C   0  0  0  0  0  0  0  0  0  0  0  0
    4.8864    0.9802    4.0791 C   0  0  0  0  0  0  0  0  0  0  0  0
    5.5057    0.2812    5.1082 C   0  0  0  0  0  0  0  0  0  0  0  0
    5.3012    0.8736    6.7171 Cl  0  0  0  0  0  0  0  0  0  0  0  0
    6.2696   -0.8524    4.8130 C   0  0  0  0  0  0  0  0  0  0  0  0
    7.0253   -1.8056    6.0397 Cl  0  0  0  0  0  0  0  0  0  0  0  0
    6.4571   -1.2444    3.4815 C   0  0  0  0  0  0  0  0  0  0  0  0
    6.2064   -0.6077   -1.3115 C   0  0  0  0  0  0  0  0  0  0  0  0
    6.2634   -1.9918   -1.5425 C   0  0  0  0  0  0  0  0  0  0  0  0
    6.4883   -2.5298   -2.8100 C   0  0  0  0  0  0  0  0  0  0  0  0
    6.5689   -3.8784   -2.7011 O   0  0  0  0  0  0  0  0  0  0  0  0
    6.9398   -4.7499   -3.7452 C   0  0  0  0  0  0  0  0  0  0  0  0
    9.5539    0.4888   -6.3524 C   0  0  0  0  0  0  0  0  0  0  0  0
    8.4742    8.1886  -10.3420 H   0  0  0  0  0  0  0  0  0  0  0  0
    9.4896    7.1723  -11.3866 H   0  0  0  0  0  0  0  0  0  0  0  0
    9.9645    7.4908   -9.6777 H   0  0  0  0  0  0  0  0  0  0  0  0
    7.3925    3.7880  -10.1500 H   0  0  0  0  0  0  0  0  0  0  0  0
    7.7582    4.1750   -8.4447 H   0  0  0  0  0  0  0  0  0  0  0  0
    9.7977    2.7681   -8.5660 H   0  0  0  0  0  0  0  0  0  0  0  0
    9.4608    2.3803  -10.2491 H   0  0  0  0  0  0  0  0  0  0  0  0
    7.3311    1.2668   -9.6086 H   0  0  0  0  0  0  0  0  0  0  0  0
    7.5949    1.6587   -7.9259 H   0  0  0  0  0  0  0  0  0  0  0  0
    9.4302   -0.0154   -9.7205 H   0  0  0  0  0  0  0  0  0  0  0  0
    8.3019   -0.6872   -8.5799 H   0  0  0  0  0  0  0  0  0  0  0  0
   11.8029   -0.6723   -7.1592 H   0  0  0  0  0  0  0  0  0  0  0  0
   11.2260   -1.1850   -8.7344 H   0  0  0  0  0  0  0  0  0  0  0  0
   10.9733   -2.9746   -6.9987 H   0  0  0  0  0  0  0  0  0  0  0  0
    9.3944   -2.5226   -7.6203 H   0  0  0  0  0  0  0  0  0  0  0  0
    8.9432   -0.4720   -4.5594 H   0  0  0  0  0  0  0  0  0  0  0  0
    7.5368   -1.6819   -7.0022 H   0  0  0  0  0  0  0  0  0  0  0  0
    6.8711   -0.2898   -6.2193 H   0  0  0  0  0  0  0  0  0  0  0  0
    6.4206    0.4652   -4.4567 H   0  0  0  0  0  0  0  0  0  0  0  0
    5.9028    3.1234   -0.8835 H   0  0  0  0  0  0  0  0  0  0  0  0
    6.9522   -1.4978    1.0220 H   0  0  0  0  0  0  0  0  0  0  0  0
    4.5577    1.1313    1.9740 H   0  0  0  0  0  0  0  0  0  0  0  0
    4.2676    1.8513    4.2808 H   0  0  0  0  0  0  0  0  0  0  0  0
    7.0491   -2.1311    3.2638 H   0  0  0  0  0  0  0  0  0  0  0  0
    6.1403   -2.6876   -0.7154 H   0  0  0  0  0  0  0  0  0  0  0  0
    7.3549   -5.6416   -3.2553 H   0  0  0  0  0  0  0  0  0  0  0  0
    7.7121   -4.3567   -4.4054 H   0  0  0  0  0  0  0  0  0  0  0  0
    6.0508   -5.0770   -4.2904 H   0  0  0  0  0  0  0  0  0  0  0  0
   10.4463    0.7983   -5.7867 H   0  0  0  0  0  0  0  0  0  0  0  0
    8.8884    1.3560   -6.2824 H   0  0  0  0  0  0  0  0  0  0  0  0
  1  2  1  0  0  0  0
  1 38  1  0  0  0  0
  1 39  1  0  0  0  0
  1 40  1  0  0  0  0
  2  3  1  0  0  0  0
  3  4  2  0  0  0  0
  3  5  1  0  0  0  0
  5  6  1  0  0  0  0
  5 41  1  0  0  0  0
  5 42  1  0  0  0  0
  6  7  1  0  0  0  0
  6 43  1  0  0  0  0
  6 44  1  0  0  0  0
  7  8  1  0  0  0  0
  7 45  1  0  0  0  0
  7 46  1  0  0  0  0
  8  9  1  0  0  0  0
  8 47  1  0  0  0  0
  8 48  1  0  0  0  0
  9 10  1  0  0  0  0
  9 37  1  0  0  0  0
 10 11  1  0  0  0  0
 10 49  1  0  0  0  0
 10 50  1  0  0  0  0
 11 12  1  0  0  0  0
 11 51  1  0  0  0  0
 11 52  1  0  0  0  0
 12 13  1  0  0  0  0
 13 14  1  0  0  0  0
 13 37  1  0  0  0  0
 13 53  1  0  0  0  0
 14 15  1  0  0  0  0
 14 54  1  0  0  0  0
 14 55  1  0  0  0  0
 15 16  1  0  0  0  0
 16 17  1  0  0  0  0
 16 34  2  0  0  0  0
 17 18  2  0  0  0  0
 17 56  1  0  0  0  0
 18 19  1  0  0  0  0
 18 32  1  0  0  0  0
 19 20  2  0  0  0  0
 20 21  1  0  0  0  0
 20 57  1  0  0  0  0
 21 22  2  0  0  0  0
 22 23  1  0  0  0  0
 22 32  1  0  0  0  0
 23 24  1  0  0  0  0
 23 58  1  0  0  0  0
 24 25  1  0  0  0  0
 24 31  2  0  0  0  0
 25 26  2  0  0  0  0
 25 59  1  0  0  0  0
 26 27  1  0  0  0  0
 26 60  1  0  0  0  0
 27 28  1  0  0  0  0
 27 29  2  0  0  0  0
 29 30  1  0  0  0  0
 29 31  1  0  0  0  0
 31 61  1  0  0  0  0
 32 33  2  0  0  0  0
 33 34  1  0  0  0  0
 33 62  1  0  0  0  0
 34 35  1  0  0  0  0
 35 36  1  0  0  0  0
 36 63  1  0  0  0  0
 36 64  1  0  0  0  0
 36 65  1  0  0  0  0
 37 66  1  0  0  0  0
 37 67  1  0  0  0  0
M  END
$$$$
