CHEMBL377959
 OpenBabel04072215373D

 47 51  0  0  0  0  0  0  0  0999 V2000
    1.9288    0.0291   -1.0562 C   0  0  0  0  0  0  0  0  0  0  0  0
    0.4812    0.2179   -1.0868 N   0  0  0  0  0  0  0  0  0  0  0  0
   -0.2193   -1.0301   -0.7448 C   0  0  0  0  0  0  0  0  0  0  0  0
   -1.7522   -0.8305   -0.7147 C   0  0  0  0  0  0  0  0  0  0  0  0
   -2.2152    0.2016    0.2391 N   0  0  0  0  0  0  0  0  0  0  0  0
   -2.0225   -0.1612    1.6555 C   0  0  0  0  0  0  0  0  0  0  0  0
   -2.7477   -1.4241    2.0923 C   0  0  0  0  0  0  0  0  0  0  0  0
   -2.0899   -2.6789    1.9931 C   0  0  0  0  0  0  0  0  0  0  0  0
   -2.7251   -3.8755    2.3257 C   0  0  0  0  0  0  0  0  0  0  0  0
   -4.0082   -3.7850    2.8024 C   0  0  0  0  0  0  0  0  0  0  0  0
   -4.6806   -2.5453    2.9726 C   0  0  0  0  0  0  0  0  0  0  0  0
   -4.0619   -1.3622    2.5928 C   0  0  0  0  0  0  0  0  0  0  0  0
   -6.0762   -2.7034    3.6101 C   0  0  0  0  0  0  0  0  0  0  0  0
   -6.0740   -4.1911    3.7228 C   0  0  0  0  0  0  0  0  0  0  0  0
   -6.8382   -5.2688    4.1913 C   0  0  0  0  0  0  0  0  0  0  0  0
   -8.1351   -5.1781    4.8804 C   0  0  0  0  0  0  0  0  0  0  0  0
   -8.8384   -6.3402    5.3275 C   0  0  0  0  0  0  0  0  0  0  0  0
  -10.0148   -6.0242    5.9718 C   0  0  0  0  0  0  0  0  0  0  0  0
  -10.2778   -4.3352    6.0340 S   0  0  0  0  0  0  0  0  0  0  0  0
   -8.8150   -4.0238    5.1995 C   0  0  0  0  0  0  0  0  0  0  0  0
   -6.2121   -6.4450    3.9635 N   0  0  0  0  0  0  0  0  0  0  0  0
   -5.0372   -6.0985    3.3812 N   0  0  0  0  0  0  0  0  0  0  0  0
   -4.9248   -4.7655    3.2561 C   0  0  0  0  0  0  0  0  0  0  0  0
   -1.4827    1.4522   -0.0839 C   0  0  0  0  0  0  0  0  0  0  0  0
    0.0621    1.3070   -0.1853 C   0  0  0  0  0  0  0  0  0  0  0  0
    2.2265   -0.7788   -1.7349 H   0  0  0  0  0  0  0  0  0  0  0  0
    2.2952   -0.2166   -0.0526 H   0  0  0  0  0  0  0  0  0  0  0  0
    2.4406    0.9342   -1.3998 H   0  0  0  0  0  0  0  0  0  0  0  0
    0.1333   -1.4107    0.2213 H   0  0  0  0  0  0  0  0  0  0  0  0
    0.0111   -1.7978   -1.4931 H   0  0  0  0  0  0  0  0  0  0  0  0
   -2.2550   -1.7869   -0.5417 H   0  0  0  0  0  0  0  0  0  0  0  0
   -2.0808   -0.5330   -1.7206 H   0  0  0  0  0  0  0  0  0  0  0  0
   -2.4007    0.6613    2.2788 H   0  0  0  0  0  0  0  0  0  0  0  0
   -0.9634   -0.2600    1.9207 H   0  0  0  0  0  0  0  0  0  0  0  0
   -1.0653   -2.7234    1.6334 H   0  0  0  0  0  0  0  0  0  0  0  0
   -2.2147   -4.8244    2.2228 H   0  0  0  0  0  0  0  0  0  0  0  0
   -4.5767   -0.4105    2.6864 H   0  0  0  0  0  0  0  0  0  0  0  0
   -6.8587   -2.3401    2.9404 H   0  0  0  0  0  0  0  0  0  0  0  0
   -6.1071   -2.2190    4.5895 H   0  0  0  0  0  0  0  0  0  0  0  0
   -8.4923   -7.3579    5.1896 H   0  0  0  0  0  0  0  0  0  0  0  0
  -10.7308   -6.7027    6.4143 H   0  0  0  0  0  0  0  0  0  0  0  0
   -8.5363   -3.0000    5.0002 H   0  0  0  0  0  0  0  0  0  0  0  0
   -4.3892   -6.8303    3.1107 H   0  0  0  0  0  0  0  0  0  0  0  0
   -1.7305    2.2347    0.6439 H   0  0  0  0  0  0  0  0  0  0  0  0
   -1.8581    1.8210   -1.0481 H   0  0  0  0  0  0  0  0  0  0  0  0
    0.4736    1.1536    0.8200 H   0  0  0  0  0  0  0  0  0  0  0  0
    0.4681    2.2551   -0.5573 H   0  0  0  0  0  0  0  0  0  0  0  0
  1  2  1  0  0  0  0
  1 26  1  0  0  0  0
  1 27  1  0  0  0  0
  1 28  1  0  0  0  0
  2  3  1  0  0  0  0
  2 25  1  0  0  0  0
  3  4  1  0  0  0  0
  3 29  1  0  0  0  0
  3 30  1  0  0  0  0
  4  5  1  0  0  0  0
  4 31  1  0  0  0  0
  4 32  1  0  0  0  0
  5  6  1  0  0  0  0
  5 24  1  0  0  0  0
  6  7  1  0  0  0  0
  6 33  1  0  0  0  0
  6 34  1  0  0  0  0
  7  8  1  0  0  0  0
  7 12  2  0  0  0  0
  8  9  2  0  0  0  0
  8 35  1  0  0  0  0
  9 10  1  0  0  0  0
  9 36  1  0  0  0  0
 10 11  2  0  0  0  0
 10 23  1  0  0  0  0
 11 12  1  0  0  0  0
 11 13  1  0  0  0  0
 12 37  1  0  0  0  0
 13 14  1  0  0  0  0
 13 38  1  0  0  0  0
 13 39  1  0  0  0  0
 14 15  1  0  0  0  0
 14 23  2  0  0  0  0
 15 16  1  0  0  0  0
 15 21  2  0  0  0  0
 16 17  1  0  0  0  0
 16 20  2  0  0  0  0
 17 18  2  0  0  0  0
 17 40  1  0  0  0  0
 18 19  1  0  0  0  0
 18 41  1  0  0  0  0
 19 20  1  0  0  0  0
 20 42  1  0  0  0  0
 21 22  1  0  0  0  0
 22 23  1  0  0  0  0
 22 43  1  0  0  0  0
 24 25  1  0  0  0  0
 24 44  1  0  0  0  0
 24 45  1  0  0  0  0
 25 46  1  0  0  0  0
 25 47  1  0  0  0  0
M  END
$$$$
