CHEMBL497290
 OpenBabel04072215383D

 39 42  0  0  0  0  0  0  0  0999 V2000
    2.9282    1.1986   -3.8718 C   0  0  0  0  0  0  0  0  0  0  0  0
    4.0950    0.7180   -3.1728 N   0  0  0  0  0  0  0  0  0  0  0  0
    5.0320    1.6806   -2.8334 C   0  0  0  0  0  0  0  0  0  0  0  0
    6.2995    1.2519   -2.8052 N   0  0  0  0  0  0  0  0  0  0  0  0
    7.2372    2.1411   -2.4382 C   0  0  0  0  0  0  0  0  0  0  0  0
    6.9567    3.4424   -2.1099 C   0  0  0  0  0  0  0  0  0  0  0  0
    5.6296    3.8022   -2.1866 C   0  0  0  0  0  0  0  0  0  0  0  0
    5.2310    5.1838   -1.8720 C   0  0  0  0  0  0  0  0  0  0  0  0
    3.9724    5.6385   -1.9665 C   0  0  0  0  0  0  0  0  0  0  0  0
    3.6839    6.9907   -1.6638 C   0  0  0  0  0  0  0  0  0  0  0  0
    3.3298    7.7213   -0.5273 C   0  0  0  0  0  0  0  0  0  0  0  0
    3.1126    7.2050    0.8177 C   0  0  0  0  0  0  0  0  0  0  0  0
    3.4002    8.0185    1.9227 C   0  0  0  0  0  0  0  0  0  0  0  0
    3.1396    7.5757    3.2220 C   0  0  0  0  0  0  0  0  0  0  0  0
    2.5834    6.3152    3.4300 C   0  0  0  0  0  0  0  0  0  0  0  0
    2.2995    5.4944    2.3412 C   0  0  0  0  0  0  0  0  0  0  0  0
    2.5620    5.9361    1.0420 C   0  0  0  0  0  0  0  0  0  0  0  0
    3.1878    9.0752   -0.8158 N   0  0  0  0  0  0  0  0  0  0  0  0
    3.4016    9.1325   -2.0982 C   0  0  0  0  0  0  0  0  0  0  0  0
    3.3932   10.4045   -3.2812 S   0  0  0  0  0  0  0  0  0  0  0  0
    3.8251    9.2111   -4.5158 C   0  0  0  0  0  0  0  0  0  0  0  0
    3.9504    7.9668   -4.0211 C   0  0  0  0  0  0  0  0  0  0  0  0
    3.7060    7.9322   -2.6641 N   0  0  0  0  0  0  0  0  0  0  0  0
    4.6607    2.9380   -2.5541 N   0  0  0  0  0  0  0  0  0  0  0  0
    2.3061    0.3446   -4.1579 H   0  0  0  0  0  0  0  0  0  0  0  0
    3.1970    1.7353   -4.7882 H   0  0  0  0  0  0  0  0  0  0  0  0
    2.3164    1.8474   -3.2360 H   0  0  0  0  0  0  0  0  0  0  0  0
    4.6073   -0.0315   -3.6233 H   0  0  0  0  0  0  0  0  0  0  0  0
    8.2537    1.7600   -2.4133 H   0  0  0  0  0  0  0  0  0  0  0  0
    7.7379    4.1290   -1.8152 H   0  0  0  0  0  0  0  0  0  0  0  0
    6.0287    5.8495   -1.5520 H   0  0  0  0  0  0  0  0  0  0  0  0
    3.1563    4.9900   -2.2759 H   0  0  0  0  0  0  0  0  0  0  0  0
    3.8182    9.0127    1.7733 H   0  0  0  0  0  0  0  0  0  0  0  0
    3.3585    8.2210    4.0691 H   0  0  0  0  0  0  0  0  0  0  0  0
    2.3622    5.9764    4.4387 H   0  0  0  0  0  0  0  0  0  0  0  0
    1.8570    4.5140    2.4982 H   0  0  0  0  0  0  0  0  0  0  0  0
    2.3016    5.2853    0.2129 H   0  0  0  0  0  0  0  0  0  0  0  0
    3.9666    9.4950   -5.5506 H   0  0  0  0  0  0  0  0  0  0  0  0
    4.2082    7.0697   -4.5616 H   0  0  0  0  0  0  0  0  0  0  0  0
  1  2  1  0  0  0  0
  1 25  1  0  0  0  0
  1 26  1  0  0  0  0
  1 27  1  0  0  0  0
  2  3  1  0  0  0  0
  2 28  1  0  0  0  0
  3  4  1  0  0  0  0
  3 24  2  0  0  0  0
  4  5  2  0  0  0  0
  5  6  1  0  0  0  0
  5 29  1  0  0  0  0
  6  7  2  0  0  0  0
  6 30  1  0  0  0  0
  7  8  1  0  0  0  0
  7 24  1  0  0  0  0
  8  9  2  0  0  0  0
  8 31  1  0  0  0  0
  9 10  1  0  0  0  0
  9 32  1  0  0  0  0
 10 11  2  0  0  0  0
 10 23  1  0  0  0  0
 11 12  1  0  0  0  0
 11 18  1  0  0  0  0
 12 13  1  0  0  0  0
 12 17  2  0  0  0  0
 13 14  2  0  0  0  0
 13 33  1  0  0  0  0
 14 15  1  0  0  0  0
 14 34  1  0  0  0  0
 15 16  2  0  0  0  0
 15 35  1  0  0  0  0
 16 17  1  0  0  0  0
 16 36  1  0  0  0  0
 17 37  1  0  0  0  0
 18 19  2  0  0  0  0
 19 20  1  0  0  0  0
 19 23  1  0  0  0  0
 20 21  1  0  0  0  0
 21 22  2  0  0  0  0
 21 38  1  0  0  0  0
 22 23  1  0  0  0  0
 22 39  1  0  0  0  0
M  END
$$$$
