CHEMBL4584918
 OpenBabel04072215383D

 45 48  0  0  0  0  0  0  0  0999 V2000
    1.1192    0.2954   -0.4105 C   0  0  0  0  0  0  0  0  0  0  0  0
    2.4504    0.0566    0.0375 O   0  0  0  0  0  0  0  0  0  0  0  0
    3.1336   -0.9437   -0.6078 C   0  0  0  0  0  0  0  0  0  0  0  0
    2.8221   -1.3110   -1.9243 C   0  0  0  0  0  0  0  0  0  0  0  0
    3.5521   -2.2780   -2.6219 C   0  0  0  0  0  0  0  0  0  0  0  0
    3.2361   -2.6101   -3.9496 N   0  0  0  0  0  0  0  0  0  0  0  0
    2.6401   -1.7961   -4.9119 C   0  0  0  0  0  0  0  0  0  0  0  0
    1.8586   -2.3943   -5.8117 N   0  0  0  0  0  0  0  0  0  0  0  0
    1.3581   -1.6079   -6.7816 C   0  0  0  0  0  0  0  0  0  0  0  0
    1.6431   -0.2622   -6.9321 C   0  0  0  0  0  0  0  0  0  0  0  0
    2.4617    0.2772   -5.9657 C   0  0  0  0  0  0  0  0  0  0  0  0
    2.9291   -0.4848   -4.9454 N   0  0  0  0  0  0  0  0  0  0  0  0
    2.9202    1.6758   -5.9898 C   0  0  0  0  0  0  0  0  0  0  0  0
    3.7839    2.1884   -4.9976 C   0  0  0  0  0  0  0  0  0  0  0  0
    4.2281    3.5082   -5.0331 C   0  0  0  0  0  0  0  0  0  0  0  0
    3.7947    4.3076   -6.0674 C   0  0  0  0  0  0  0  0  0  0  0  0
    2.9786    3.8664   -7.0415 N   0  0  0  0  0  0  0  0  0  0  0  0
    2.5608    2.5708   -6.9990 C   0  0  0  0  0  0  0  0  0  0  0  0
    1.5481    2.1649   -8.3957 S   0  0  0  0  0  0  0  0  0  0  0  0
    1.0547    0.4695   -8.0839 C   0  0  0  0  0  0  0  0  0  0  0  0
    4.6354   -2.8824   -1.9851 C   0  0  0  0  0  0  0  0  0  0  0  0
    5.0048   -2.4889   -0.6854 C   0  0  0  0  0  0  0  0  0  0  0  0
    6.0931   -3.0274   -0.0336 O   0  0  0  0  0  0  0  0  0  0  0  0
    7.2017   -3.3803   -0.8554 C   0  0  0  0  0  0  0  0  0  0  0  0
    4.2279   -1.5533    0.0276 C   0  0  0  0  0  0  0  0  0  0  0  0
    4.6750   -1.2665    1.2990 O   0  0  0  0  0  0  0  0  0  0  0  0
    3.6894   -0.9242    2.2644 C   0  0  0  0  0  0  0  0  0  0  0  0
    0.6552    1.0109    0.2719 H   0  0  0  0  0  0  0  0  0  0  0  0
    0.5318   -0.6293   -0.3873 H   0  0  0  0  0  0  0  0  0  0  0  0
    1.1055    0.7478   -1.4083 H   0  0  0  0  0  0  0  0  0  0  0  0
    1.9965   -0.8402   -2.4446 H   0  0  0  0  0  0  0  0  0  0  0  0
    3.0594   -3.5868   -4.1382 H   0  0  0  0  0  0  0  0  0  0  0  0
    0.7000   -2.1220   -7.4795 H   0  0  0  0  0  0  0  0  0  0  0  0
    4.1291    1.5497   -4.1854 H   0  0  0  0  0  0  0  0  0  0  0  0
    4.8985    3.8988   -4.2757 H   0  0  0  0  0  0  0  0  0  0  0  0
    4.0996    5.3466   -6.1523 H   0  0  0  0  0  0  0  0  0  0  0  0
    1.2952   -0.0852   -8.9991 H   0  0  0  0  0  0  0  0  0  0  0  0
   -0.0360    0.4671   -7.9815 H   0  0  0  0  0  0  0  0  0  0  0  0
    5.2072   -3.6281   -2.5260 H   0  0  0  0  0  0  0  0  0  0  0  0
    8.0692   -3.5260   -0.2039 H   0  0  0  0  0  0  0  0  0  0  0  0
    7.4527   -2.5882   -1.5701 H   0  0  0  0  0  0  0  0  0  0  0  0
    7.0146   -4.3277   -1.3704 H   0  0  0  0  0  0  0  0  0  0  0  0
    4.1378   -1.0479    3.2553 H   0  0  0  0  0  0  0  0  0  0  0  0
    2.8132   -1.5809    2.2149 H   0  0  0  0  0  0  0  0  0  0  0  0
    3.4079    0.1290    2.1799 H   0  0  0  0  0  0  0  0  0  0  0  0
  1  2  1  0  0  0  0
  1 28  1  0  0  0  0
  1 29  1  0  0  0  0
  1 30  1  0  0  0  0
  2  3  1  0  0  0  0
  3  4  1  0  0  0  0
  3 25  2  0  0  0  0
  4  5  2  0  0  0  0
  4 31  1  0  0  0  0
  5  6  1  0  0  0  0
  5 21  1  0  0  0  0
  6  7  1  0  0  0  0
  6 32  1  0  0  0  0
  7  8  1  0  0  0  0
  7 12  2  0  0  0  0
  8  9  2  0  0  0  0
  9 10  1  0  0  0  0
  9 33  1  0  0  0  0
 10 11  2  0  0  0  0
 10 20  1  0  0  0  0
 11 12  1  0  0  0  0
 11 13  1  0  0  0  0
 13 14  1  0  0  0  0
 13 18  2  0  0  0  0
 14 15  2  0  0  0  0
 14 34  1  0  0  0  0
 15 16  1  0  0  0  0
 15 35  1  0  0  0  0
 16 17  2  0  0  0  0
 16 36  1  0  0  0  0
 17 18  1  0  0  0  0
 18 19  1  0  0  0  0
 19 20  1  0  0  0  0
 20 37  1  0  0  0  0
 20 38  1  0  0  0  0
 21 22  2  0  0  0  0
 21 39  1  0  0  0  0
 22 23  1  0  0  0  0
 22 25  1  0  0  0  0
 23 24  1  0  0  0  0
 24 40  1  0  0  0  0
 24 41  1  0  0  0  0
 24 42  1  0  0  0  0
 25 26  1  0  0  0  0
 26 27  1  0  0  0  0
 27 43  1  0  0  0  0
 27 44  1  0  0  0  0
 27 45  1  0  0  0  0
M  END
$$$$
