CHEMBL491686
 OpenBabel04072215383D

 46 50  0  0  0  0  0  0  0  0999 V2000
   -2.5025    8.5938    1.0321 C   0  0  0  0  0  0  0  0  0  0  0  0
   -1.5217    7.7078    1.6916 C   0  0  0  0  0  0  0  0  0  0  0  0
   -0.6049    6.8219    1.1766 C   0  0  0  0  0  0  0  0  0  0  0  0
    0.0490    6.2500    2.2912 C   0  0  0  0  0  0  0  0  0  0  0  0
    0.9831    5.2776    2.2438 N   0  0  0  0  0  0  0  0  0  0  0  0
    1.7803    4.8664    1.1581 C   0  0  0  0  0  0  0  0  0  0  0  0
    2.3096    3.5951    1.1759 C   0  0  0  0  0  0  0  0  0  0  0  0
    2.9858    3.2024    0.0476 C   0  0  0  0  0  0  0  0  0  0  0  0
    3.1674    3.9924   -1.0257 N   0  0  0  0  0  0  0  0  0  0  0  0
    2.6489    5.2262   -0.9595 C   0  0  0  0  0  0  0  0  0  0  0  0
    2.9188    6.0563   -2.0538 N   0  0  0  0  0  0  0  0  0  0  0  0
    2.9855    7.4630   -2.1036 C   0  0  0  0  0  0  0  0  0  0  0  0
    3.9013    8.0635   -2.9759 C   0  0  0  0  0  0  0  0  0  0  0  0
    4.0715    9.4507   -2.9892 C   0  0  0  0  0  0  0  0  0  0  0  0
    3.3042   10.2599   -2.1474 C   0  0  0  0  0  0  0  0  0  0  0  0
    2.3463    9.6999   -1.2979 C   0  0  0  0  0  0  0  0  0  0  0  0
    1.5626   10.5722   -0.4064 C   0  0  0  0  0  0  0  0  0  0  0  0
    1.1468   11.7914   -0.7082 N   0  0  0  0  0  0  0  0  0  0  0  0
    0.5151   12.3712    0.3851 C   0  0  0  0  0  0  0  0  0  0  0  0
   -0.0428   13.6666    0.4403 C   0  0  0  0  0  0  0  0  0  0  0  0
   -0.6021   14.1363    1.6364 C   0  0  0  0  0  0  0  0  0  0  0  0
   -0.6360   13.3257    2.7660 C   0  0  0  0  0  0  0  0  0  0  0  0
   -0.1208   12.0278    2.7276 C   0  0  0  0  0  0  0  0  0  0  0  0
    0.4630   11.5788    1.5311 C   0  0  0  0  0  0  0  0  0  0  0  0
    1.2259   10.0778    1.2073 S   0  0  0  0  0  0  0  0  0  0  0  0
    2.1903    8.2991   -1.3091 C   0  0  0  0  0  0  0  0  0  0  0  0
    1.9502    5.6676    0.0935 N   0  0  0  0  0  0  0  0  0  0  0  0
   -0.4340    6.7435    3.4354 N   0  0  0  0  0  0  0  0  0  0  0  0
   -1.3707    7.6263    3.0459 N   0  0  0  0  0  0  0  0  0  0  0  0
   -2.3767    8.5681   -0.0558 H   0  0  0  0  0  0  0  0  0  0  0  0
   -2.3817    9.6306    1.3600 H   0  0  0  0  0  0  0  0  0  0  0  0
   -3.5226    8.2708    1.2609 H   0  0  0  0  0  0  0  0  0  0  0  0
   -0.4374    6.6102    0.1308 H   0  0  0  0  0  0  0  0  0  0  0  0
    1.3661    5.0143    3.1416 H   0  0  0  0  0  0  0  0  0  0  0  0
    2.1726    2.9245    2.0131 H   0  0  0  0  0  0  0  0  0  0  0  0
    3.4103    2.2066   -0.0313 H   0  0  0  0  0  0  0  0  0  0  0  0
    3.5707    5.5635   -2.6485 H   0  0  0  0  0  0  0  0  0  0  0  0
    4.5184    7.4563   -3.6334 H   0  0  0  0  0  0  0  0  0  0  0  0
    4.8184    9.8993   -3.6378 H   0  0  0  0  0  0  0  0  0  0  0  0
    3.4712   11.3357   -2.1434 H   0  0  0  0  0  0  0  0  0  0  0  0
   -0.0169   14.3004   -0.4408 H   0  0  0  0  0  0  0  0  0  0  0  0
   -1.0014   15.1472    1.6837 H   0  0  0  0  0  0  0  0  0  0  0  0
   -1.0583   13.7068    3.6936 H   0  0  0  0  0  0  0  0  0  0  0  0
   -0.1436   11.3923    3.6074 H   0  0  0  0  0  0  0  0  0  0  0  0
    1.4264    7.8573   -0.6782 H   0  0  0  0  0  0  0  0  0  0  0  0
   -1.8823    8.1296    3.7626 H   0  0  0  0  0  0  0  0  0  0  0  0
  1  2  1  0  0  0  0
  1 30  1  0  0  0  0
  1 31  1  0  0  0  0
  1 32  1  0  0  0  0
  2  3  2  0  0  0  0
  2 29  1  0  0  0  0
  3  4  1  0  0  0  0
  3 33  1  0  0  0  0
  4  5  1  0  0  0  0
  4 28  2  0  0  0  0
  5  6  1  0  0  0  0
  5 34  1  0  0  0  0
  6  7  1  0  0  0  0
  6 27  2  0  0  0  0
  7  8  2  0  0  0  0
  7 35  1  0  0  0  0
  8  9  1  0  0  0  0
  8 36  1  0  0  0  0
  9 10  2  0  0  0  0
 10 11  1  0  0  0  0
 10 27  1  0  0  0  0
 11 12  1  0  0  0  0
 11 37  1  0  0  0  0
 12 13  1  0  0  0  0
 12 26  2  0  0  0  0
 13 14  2  0  0  0  0
 13 38  1  0  0  0  0
 14 15  1  0  0  0  0
 14 39  1  0  0  0  0
 15 16  2  0  0  0  0
 15 40  1  0  0  0  0
 16 17  1  0  0  0  0
 16 26  1  0  0  0  0
 17 18  2  0  0  0  0
 17 25  1  0  0  0  0
 18 19  1  0  0  0  0
 19 20  1  0  0  0  0
 19 24  2  0  0  0  0
 20 21  2  0  0  0  0
 20 41  1  0  0  0  0
 21 22  1  0  0  0  0
 21 42  1  0  0  0  0
 22 23  2  0  0  0  0
 22 43  1  0  0  0  0
 23 24  1  0  0  0  0
 23 44  1  0  0  0  0
 24 25  1  0  0  0  0
 26 45  1  0  0  0  0
 28 29  1  0  0  0  0
 29 46  1  0  0  0  0
M  END
$$$$
