CHEMBL3908529
 OpenBabel04072215373D

 63 66  0  0  0  0  0  0  0  0999 V2000
    7.9782   -2.6313   -8.4365 C   0  0  0  0  0  0  0  0  0  0  0  0
    7.5729   -3.2799   -7.2148 N   0  0  0  0  0  0  0  0  0  0  0  0
    8.1732   -2.9341   -6.0199 C   0  0  0  0  0  0  0  0  0  0  0  0
    8.9660   -2.0090   -5.9180 O   0  0  0  0  0  0  0  0  0  0  0  0
    7.8060   -3.7281   -4.8076 C   0  0  0  0  0  0  0  0  0  0  0  0
    7.2708   -5.0155   -4.9014 C   0  0  0  0  0  0  0  0  0  0  0  0
    7.0176   -5.7422   -3.7401 C   0  0  0  0  0  0  0  0  0  0  0  0
    6.4577   -6.9998   -3.7187 O   0  0  0  0  0  0  0  0  0  0  0  0
    6.2462   -7.6417   -4.9739 C   0  0  0  0  0  0  0  0  0  0  0  0
    7.3446   -5.1858   -2.4852 C   0  0  0  0  0  0  0  0  0  0  0  0
    7.9150   -3.9022   -2.3592 C   0  0  0  0  0  0  0  0  0  0  0  0
    8.1801   -3.3560   -1.0833 N   0  0  0  0  0  0  0  0  0  0  0  0
    7.9381   -1.8739   -0.8956 C   0  0  0  0  0  0  0  0  0  0  0  0
    6.5152   -1.3692   -1.1922 C   0  0  0  0  0  0  0  0  0  0  0  0
    5.5585   -1.8909   -0.2706 O   0  0  0  0  0  0  0  0  0  0  0  0
    9.1644   -3.7655   -0.1066 C   0  0  0  0  0  0  0  0  0  0  0  0
    8.7493   -3.6607    1.2196 C   0  0  0  0  0  0  0  0  0  0  0  0
    9.6644   -3.4492    2.2195 C   0  0  0  0  0  0  0  0  0  0  0  0
   11.0185   -3.4894    1.9855 C   0  0  0  0  0  0  0  0  0  0  0  0
   11.7762   -3.0517    2.9909 N   0  0  0  0  0  0  0  0  0  0  0  0
   13.0894   -3.2827    2.8951 C   0  0  0  0  0  0  0  0  0  0  0  0
   13.6319   -4.0415    1.8727 C   0  0  0  0  0  0  0  0  0  0  0  0
   14.8216   -4.7985    2.2496 C   0  0  0  0  0  0  0  0  0  0  0  0
   16.1936   -4.7028    1.9373 C   0  0  0  0  0  0  0  0  0  0  0  0
   16.9590   -5.5172    2.6831 N   0  0  0  0  0  0  0  0  0  0  0  0
   16.0743   -6.1649    3.4769 N   0  0  0  0  0  0  0  0  0  0  0  0
   16.5188   -7.3377    4.2135 C   0  0  0  0  0  0  0  0  0  0  0  0
   15.6266   -7.8820    5.3372 C   0  0  0  0  0  0  0  0  0  0  0  0
   14.3694   -8.3312    4.8291 O   0  0  0  0  0  0  0  0  0  0  0  0
   13.5306   -8.8596    5.8503 C   0  0  0  0  0  0  0  0  0  0  0  0
   14.8147   -5.6547    3.3467 C   0  0  0  0  0  0  0  0  0  0  0  0
   12.8828   -4.3300    0.7438 N   0  0  0  0  0  0  0  0  0  0  0  0
   11.5249   -3.9838    0.7555 C   0  0  0  0  0  0  0  0  0  0  0  0
   10.5497   -4.0430   -0.3189 C   0  0  0  0  0  0  0  0  0  0  0  0
    8.1036   -3.1807   -3.5458 C   0  0  0  0  0  0  0  0  0  0  0  0
    7.3513   -2.9926   -9.2558 H   0  0  0  0  0  0  0  0  0  0  0  0
    9.0259   -2.8761   -8.6357 H   0  0  0  0  0  0  0  0  0  0  0  0
    7.8746   -1.5487   -8.3313 H   0  0  0  0  0  0  0  0  0  0  0  0
    6.7972   -3.9247   -7.2477 H   0  0  0  0  0  0  0  0  0  0  0  0
    7.0869   -5.4515   -5.8739 H   0  0  0  0  0  0  0  0  0  0  0  0
    5.8527   -8.6440   -4.7795 H   0  0  0  0  0  0  0  0  0  0  0  0
    7.1873   -7.7590   -5.5216 H   0  0  0  0  0  0  0  0  0  0  0  0
    5.5010   -7.1069   -5.5779 H   0  0  0  0  0  0  0  0  0  0  0  0
    7.1125   -5.7568   -1.5876 H   0  0  0  0  0  0  0  0  0  0  0  0
    8.6705   -1.3068   -1.4807 H   0  0  0  0  0  0  0  0  0  0  0  0
    8.1096   -1.5841    0.1497 H   0  0  0  0  0  0  0  0  0  0  0  0
    6.1877   -1.5698   -2.2149 H   0  0  0  0  0  0  0  0  0  0  0  0
    6.5073   -0.2799   -1.0566 H   0  0  0  0  0  0  0  0  0  0  0  0
    4.8074   -2.2197   -0.7945 H   0  0  0  0  0  0  0  0  0  0  0  0
    7.6792   -3.5697    1.4462 H   0  0  0  0  0  0  0  0  0  0  0  0
    9.3157   -3.1939    3.2129 H   0  0  0  0  0  0  0  0  0  0  0  0
   13.6833   -2.9611    3.7444 H   0  0  0  0  0  0  0  0  0  0  0  0
   16.6896   -4.0578    1.2238 H   0  0  0  0  0  0  0  0  0  0  0  0
   17.5008   -7.0953    4.6413 H   0  0  0  0  0  0  0  0  0  0  0  0
   16.6560   -8.1160    3.4539 H   0  0  0  0  0  0  0  0  0  0  0  0
   15.4698   -7.1279    6.1173 H   0  0  0  0  0  0  0  0  0  0  0  0
   16.1320   -8.7454    5.7914 H   0  0  0  0  0  0  0  0  0  0  0  0
   12.5558   -9.0889    5.4098 H   0  0  0  0  0  0  0  0  0  0  0  0
   13.3854   -8.1305    6.6535 H   0  0  0  0  0  0  0  0  0  0  0  0
   13.9572   -9.7833    6.2522 H   0  0  0  0  0  0  0  0  0  0  0  0
   14.0111   -5.9638    4.0011 H   0  0  0  0  0  0  0  0  0  0  0  0
   10.9155   -4.2109   -1.3336 H   0  0  0  0  0  0  0  0  0  0  0  0
    8.5126   -2.1743   -3.5133 H   0  0  0  0  0  0  0  0  0  0  0  0
  1  2  1  0  0  0  0
  1 36  1  0  0  0  0
  1 37  1  0  0  0  0
  1 38  1  0  0  0  0
  2  3  1  0  0  0  0
  2 39  1  0  0  0  0
  3  4  2  0  0  0  0
  3  5  1  0  0  0  0
  5  6  1  0  0  0  0
  5 35  2  0  0  0  0
  6  7  2  0  0  0  0
  6 40  1  0  0  0  0
  7  8  1  0  0  0  0
  7 10  1  0  0  0  0
  8  9  1  0  0  0  0
  9 41  1  0  0  0  0
  9 42  1  0  0  0  0
  9 43  1  0  0  0  0
 10 11  2  0  0  0  0
 10 44  1  0  0  0  0
 11 12  1  0  0  0  0
 11 35  1  0  0  0  0
 12 13  1  0  0  0  0
 12 16  1  0  0  0  0
 13 14  1  0  0  0  0
 13 45  1  0  0  0  0
 13 46  1  0  0  0  0
 14 15  1  0  0  0  0
 14 47  1  0  0  0  0
 14 48  1  0  0  0  0
 15 49  1  0  0  0  0
 16 17  1  0  0  0  0
 16 34  2  0  0  0  0
 17 18  2  0  0  0  0
 17 50  1  0  0  0  0
 18 19  1  0  0  0  0
 18 51  1  0  0  0  0
 19 20  1  0  0  0  0
 19 33  2  0  0  0  0
 20 21  2  0  0  0  0
 21 22  1  0  0  0  0
 21 52  1  0  0  0  0
 22 23  1  0  0  0  0
 22 32  2  0  0  0  0
 23 24  1  0  0  0  0
 23 31  2  0  0  0  0
 24 25  2  0  0  0  0
 24 53  1  0  0  0  0
 25 26  1  0  0  0  0
 26 27  1  0  0  0  0
 26 31  1  0  0  0  0
 27 28  1  0  0  0  0
 27 54  1  0  0  0  0
 27 55  1  0  0  0  0
 28 29  1  0  0  0  0
 28 56  1  0  0  0  0
 28 57  1  0  0  0  0
 29 30  1  0  0  0  0
 30 58  1  0  0  0  0
 30 59  1  0  0  0  0
 30 60  1  0  0  0  0
 31 61  1  0  0  0  0
 32 33  1  0  0  0  0
 33 34  1  0  0  0  0
 34 62  1  0  0  0  0
 35 63  1  0  0  0  0
M  END
$$$$
