CHEMBL4520064
 OpenBabel04072215383D

 72 76  0  0  0  0  0  0  0  0999 V2000
   11.8629    3.7589   -4.9714 F   0  0  0  0  0  0  0  0  0  0  0  0
   12.4684    2.5895   -4.6195 C   0  0  0  0  0  0  0  0  0  0  0  0
   13.6739    2.5921   -5.2561 F   0  0  0  0  0  0  0  0  0  0  0  0
   12.7508    2.7020   -3.2914 F   0  0  0  0  0  0  0  0  0  0  0  0
   11.6490    1.3606   -4.9394 C   0  0  0  0  0  0  0  0  0  0  0  0
   10.3732    1.4516   -5.5080 C   0  0  0  0  0  0  0  0  0  0  0  0
    9.6378    0.2842   -5.8054 C   0  0  0  0  0  0  0  0  0  0  0  0
   10.1701   -1.0134   -5.5868 C   0  0  0  0  0  0  0  0  0  0  0  0
    9.2978   -2.2940   -5.8092 C   0  0  0  0  0  0  0  0  0  0  0  0
    9.9727   -3.5191   -6.3128 O   0  0  0  0  0  0  0  0  0  0  0  0
    9.2880   -4.5448   -6.9880 C   0  0  0  0  0  0  0  0  0  0  0  0
    9.9270   -5.4337   -7.8998 C   0  0  0  0  0  0  0  0  0  0  0  0
    9.3170   -6.6833   -8.8106 C   0  0  0  0  0  0  0  0  0  0  0  0
    7.9792   -7.1802   -8.8784 C   0  0  0  0  0  0  0  0  0  0  0  0
    7.3471   -8.5146   -9.8959 N   0  0  0  0  0  0  0  0  0  0  0  0
    6.9965   -9.8985  -10.9938 C   0  0  0  0  0  0  0  0  0  0  0  0
    5.5578  -10.0111  -10.5747 N   0  0  0  0  0  0  0  0  0  0  0  0
    4.6770  -10.6225  -11.3584 C   0  0  0  0  0  0  0  0  0  0  0  0
    5.0937  -10.9385  -12.5512 N   0  0  0  0  0  0  0  0  0  0  0  0
    6.3982  -11.3575  -12.6914 C   0  0  0  0  0  0  0  0  0  0  0  0
    6.4813  -12.5930  -12.3566 C   0  0  0  0  0  0  0  0  0  0  0  0
    7.4184  -13.7929  -13.0956 C   0  0  0  0  0  0  0  0  0  0  0  0
    8.4327  -14.2261  -14.2015 C   0  0  0  0  0  0  0  0  0  0  0  0
    8.4217  -12.4425  -13.5647 C   0  0  0  0  0  0  0  0  0  0  0  0
    7.6773  -11.1391  -12.2412 C   0  0  0  0  0  0  0  0  0  0  0  0
    7.9194  -15.5908  -15.5116 O   0  0  0  0  0  0  0  0  0  0  0  0
    8.2255  -17.3496  -16.5460 C   0  0  0  0  0  0  0  0  0  0  0  0
    8.5832  -19.3323  -17.1262 C   0  0  0  0  0  0  0  0  0  0  0  0
    8.6255  -20.6351  -16.2845 O   0  0  0  0  0  0  0  0  0  0  0  0
    8.9354  -20.1792  -15.0572 C   0  0  0  0  0  0  0  0  0  0  0  0
    7.4761  -19.9592  -14.8381 C   0  0  0  0  0  0  0  0  0  0  0  0
    7.6522  -18.6713  -14.5698 O   0  0  0  0  0  0  0  0  0  0  0  0
    6.3929  -18.1926  -14.4284 C   0  0  0  0  0  0  0  0  0  0  0  0
    7.1030  -17.2724  -13.6573 C   0  0  0  0  0  0  0  0  0  0  0  0
    5.8589  -16.6700  -13.4840 O   0  0  0  0  0  0  0  0  0  0  0  0
    6.4129  -15.7543  -12.7731 C   0  0  0  0  0  0  0  0  0  0  0  0
    5.9512  -14.8361  -11.8293 C   0  0  0  0  0  0  0  0  0  0  0  0
    7.3834  -14.3960  -11.6973 O   0  0  0  0  0  0  0  0  0  0  0  0
    7.3167   -6.2401   -7.7508 C   0  0  0  0  0  0  0  0  0  0  0  0
    7.9754   -4.9638   -6.8803 C   0  0  0  0  0  0  0  0  0  0  0  0
   11.4575   -1.0800   -5.0370 C   0  0  0  0  0  0  0  0  0  0  0  0
   12.1704    0.0837   -4.6847 C   0  0  0  0  0  0  0  0  0  0  0  0
    9.9432    2.4342   -5.7159 H   0  0  0  0  0  0  0  0  0  0  0  0
    8.6400    0.4150   -6.2231 H   0  0  0  0  0  0  0  0  0  0  0  0
    8.5262   -2.0144   -6.5275 H   0  0  0  0  0  0  0  0  0  0  0  0
    8.8237   -2.4800   -4.8297 H   0  0  0  0  0  0  0  0  0  0  0  0
   11.0069   -5.2404   -8.0062 H   0  0  0  0  0  0  0  0  0  0  0  0
   10.0962   -7.1480   -9.3892 H   0  0  0  0  0  0  0  0  0  0  0  0
    6.3298   -8.3403   -9.6519 H   0  0  0  0  0  0  0  0  0  0  0  0
    3.6689  -10.9961  -11.0883 H   0  0  0  0  0  0  0  0  0  0  0  0
    5.8444  -12.8245  -11.4614 H   0  0  0  0  0  0  0  0  0  0  0  0
    9.3946  -12.4814  -13.0631 H   0  0  0  0  0  0  0  0  0  0  0  0
    7.2590  -17.8032  -16.3175 H   0  0  0  0  0  0  0  0  0  0  0  0
    7.7720  -17.1094  -17.5266 H   0  0  0  0  0  0  0  0  0  0  0  0
    8.7730  -19.5738  -18.2517 H   0  0  0  0  0  0  0  0  0  0  0  0
    8.0212  -20.3518  -17.5628 H   0  0  0  0  0  0  0  0  0  0  0  0
    9.7078  -19.4604  -15.4115 H   0  0  0  0  0  0  0  0  0  0  0  0
    9.4567  -20.9205  -14.4864 H   0  0  0  0  0  0  0  0  0  0  0  0
    6.9182  -20.4561  -14.0626 H   0  0  0  0  0  0  0  0  0  0  0  0
    6.7538  -19.9002  -15.6976 H   0  0  0  0  0  0  0  0  0  0  0  0
    5.7342  -18.6945  -13.7176 H   0  0  0  0  0  0  0  0  0  0  0  0
    5.8244  -17.7375  -15.2767 H   0  0  0  0  0  0  0  0  0  0  0  0
    8.0867  -16.7818  -13.9943 H   0  0  0  0  0  0  0  0  0  0  0  0
    7.5374  -17.7307  -12.7367 H   0  0  0  0  0  0  0  0  0  0  0  0
    6.3968  -15.1627  -13.7056 H   0  0  0  0  0  0  0  0  0  0  0  0
    7.4252  -16.0294  -12.3719 H   0  0  0  0  0  0  0  0  0  0  0  0
    5.5308  -14.9532  -10.8528 H   0  0  0  0  0  0  0  0  0  0  0  0
    5.2650  -14.2418  -12.4851 H   0  0  0  0  0  0  0  0  0  0  0  0
    6.3057   -6.3323   -7.3175 H   0  0  0  0  0  0  0  0  0  0  0  0
    7.4022   -4.3882   -6.1215 H   0  0  0  0  0  0  0  0  0  0  0  0
   11.9278   -2.0459   -4.8793 H   0  0  0  0  0  0  0  0  0  0  0  0
   13.1467   -0.0085   -4.2064 H   0  0  0  0  0  0  0  0  0  0  0  0
  1  2  1  0  0  0  0
  2  3  1  0  0  0  0
  2  4  1  0  0  0  0
  2  5  1  0  0  0  0
  5  6  1  0  0  0  0
  5 42  2  0  0  0  0
  6  7  2  0  0  0  0
  6 43  1  0  0  0  0
  7  8  1  0  0  0  0
  7 44  1  0  0  0  0
  8  9  1  0  0  0  0
  8 41  2  0  0  0  0
  9 10  1  0  0  0  0
  9 45  1  0  0  0  0
  9 46  1  0  0  0  0
 10 11  1  0  0  0  0
 11 12  1  0  0  0  0
 11 40  2  0  0  0  0
 12 13  2  0  0  0  0
 12 47  1  0  0  0  0
 13 14  1  0  0  0  0
 13 48  1  0  0  0  0
 14 15  1  0  0  0  0
 14 39  2  0  0  0  0
 15 16  1  0  0  0  0
 15 49  1  0  0  0  0
 16 17  1  0  0  0  0
 16 25  2  0  0  0  0
 17 18  2  0  0  0  0
 18 19  1  0  0  0  0
 18 50  1  0  0  0  0
 19 20  2  0  0  0  0
 20 21  1  0  0  0  0
 20 25  1  0  0  0  0
 21 22  2  0  0  0  0
 21 51  1  0  0  0  0
 22 23  1  0  0  0  0
 22 38  1  0  0  0  0
 23 24  2  0  0  0  0
 23 26  1  0  0  0  0
 24 25  1  0  0  0  0
 24 52  1  0  0  0  0
 26 27  1  0  0  0  0
 27 28  1  0  0  0  0
 27 53  1  0  0  0  0
 27 54  1  0  0  0  0
 28 29  1  0  0  0  0
 28 55  1  0  0  0  0
 28 56  1  0  0  0  0
 29 30  1  0  0  0  0
 30 31  1  0  0  0  0
 30 57  1  0  0  0  0
 30 58  1  0  0  0  0
 31 32  1  0  0  0  0
 31 59  1  0  0  0  0
 31 60  1  0  0  0  0
 32 33  1  0  0  0  0
 33 34  1  0  0  0  0
 33 61  1  0  0  0  0
 33 62  1  0  0  0  0
 34 35  1  0  0  0  0
 34 63  1  0  0  0  0
 34 64  1  0  0  0  0
 35 36  1  0  0  0  0
 36 37  1  0  0  0  0
 36 65  1  0  0  0  0
 36 66  1  0  0  0  0
 37 38  1  0  0  0  0
 37 67  1  0  0  0  0
 37 68  1  0  0  0  0
 39 40  1  0  0  0  0
 39 69  1  0  0  0  0
 40 70  1  0  0  0  0
 41 42  1  0  0  0  0
 41 71  1  0  0  0  0
 42 72  1  0  0  0  0
M  END
$$$$
