CHEMBL1991734
 OpenBabel04072215363D

 42 45  0  0  0  0  0  0  0  0999 V2000
    0.8530   -0.0462    0.0933 C   0  0  0  0  0  0  0  0  0  0  0  0
    2.3176    0.0184    0.1153 N   0  0  0  0  0  0  0  0  0  0  0  0
    2.9785    1.2643    0.0704 C   0  0  0  0  0  0  0  0  0  0  0  0
    2.3220    2.5069    0.0475 C   0  0  0  0  0  0  0  0  0  0  0  0
    3.0179    3.7249    0.0133 C   0  0  0  0  0  0  0  0  0  0  0  0
    4.4039    3.7546    0.0298 C   0  0  0  0  0  0  0  0  0  0  0  0
    5.0910    4.9616   -0.1321 N   0  0  0  0  0  0  0  0  0  0  0  0
    5.0770    2.5385   -0.0155 C   0  0  0  0  0  0  0  0  0  0  0  0
    4.3860    1.3010    0.0461 C   0  0  0  0  0  0  0  0  0  0  0  0
    5.2044    0.0149    0.1398 C   0  0  0  0  0  0  0  0  0  0  0  0
    6.0999    0.0433    1.3866 C   0  0  0  0  0  0  0  0  0  0  0  0
    5.5313    0.1594    2.6671 C   0  0  0  0  0  0  0  0  0  0  0  0
    6.3403    0.2680    3.7965 C   0  0  0  0  0  0  0  0  0  0  0  0
    7.7268    0.2407    3.6629 C   0  0  0  0  0  0  0  0  0  0  0  0
    8.3050    0.0923    2.4024 C   0  0  0  0  0  0  0  0  0  0  0  0
    7.4982   -0.0051    1.2677 C   0  0  0  0  0  0  0  0  0  0  0  0
    4.3934   -1.2709    0.0747 C   0  0  0  0  0  0  0  0  0  0  0  0
    5.0743   -2.5127    0.0112 C   0  0  0  0  0  0  0  0  0  0  0  0
    4.3900   -3.7259    0.0461 C   0  0  0  0  0  0  0  0  0  0  0  0
    5.0673   -4.9374   -0.1286 N   0  0  0  0  0  0  0  0  0  0  0  0
    3.0036   -3.6908    0.0290 C   0  0  0  0  0  0  0  0  0  0  0  0
    2.3177   -2.4700    0.0676 C   0  0  0  0  0  0  0  0  0  0  0  0
    2.9897   -1.2328    0.0912 C   0  0  0  0  0  0  0  0  0  0  0  0
    0.3344    0.9116    0.1060 H   0  0  0  0  0  0  0  0  0  0  0  0
    0.4834   -0.5825    0.9756 H   0  0  0  0  0  0  0  0  0  0  0  0
    0.5039   -0.5551   -0.8137 H   0  0  0  0  0  0  0  0  0  0  0  0
    1.2431    2.5930    0.0526 H   0  0  0  0  0  0  0  0  0  0  0  0
    2.4512    4.6514   -0.0192 H   0  0  0  0  0  0  0  0  0  0  0  0
    4.5832    5.7687    0.2168 H   0  0  0  0  0  0  0  0  0  0  0  0
    6.0456    4.9336    0.2117 H   0  0  0  0  0  0  0  0  0  0  0  0
    6.1640    2.5381   -0.0604 H   0  0  0  0  0  0  0  0  0  0  0  0
    5.8411    0.0093   -0.7577 H   0  0  0  0  0  0  0  0  0  0  0  0
    4.4492    0.1876    2.7805 H   0  0  0  0  0  0  0  0  0  0  0  0
    5.8860    0.3840    4.7758 H   0  0  0  0  0  0  0  0  0  0  0  0
    8.3563    0.3386    4.5428 H   0  0  0  0  0  0  0  0  0  0  0  0
    9.3868    0.0637    2.3039 H   0  0  0  0  0  0  0  0  0  0  0  0
    7.9654   -0.1050    0.2911 H   0  0  0  0  0  0  0  0  0  0  0  0
    6.1600   -2.5197   -0.0427 H   0  0  0  0  0  0  0  0  0  0  0  0
    6.0267   -4.9114    0.2095 H   0  0  0  0  0  0  0  0  0  0  0  0
    4.5588   -5.7423    0.2215 H   0  0  0  0  0  0  0  0  0  0  0  0
    2.4321   -4.6138   -0.0131 H   0  0  0  0  0  0  0  0  0  0  0  0
    1.2343   -2.5284    0.0668 H   0  0  0  0  0  0  0  0  0  0  0  0
  1  2  1  0  0  0  0
  1 24  1  0  0  0  0
  1 25  1  0  0  0  0
  1 26  1  0  0  0  0
  2  3  1  0  0  0  0
  2 23  1  0  0  0  0
  3  4  1  0  0  0  0
  3  9  2  0  0  0  0
  4  5  2  0  0  0  0
  4 27  1  0  0  0  0
  5  6  1  0  0  0  0
  5 28  1  0  0  0  0
  6  7  1  0  0  0  0
  6  8  2  0  0  0  0
  7 29  1  0  0  0  0
  7 30  1  0  0  0  0
  8  9  1  0  0  0  0
  8 31  1  0  0  0  0
  9 10  1  0  0  0  0
 10 11  1  0  0  0  0
 10 17  1  0  0  0  0
 10 32  1  0  0  0  0
 11 12  1  0  0  0  0
 11 16  2  0  0  0  0
 12 13  2  0  0  0  0
 12 33  1  0  0  0  0
 13 14  1  0  0  0  0
 13 34  1  0  0  0  0
 14 15  2  0  0  0  0
 14 35  1  0  0  0  0
 15 16  1  0  0  0  0
 15 36  1  0  0  0  0
 16 37  1  0  0  0  0
 17 18  1  0  0  0  0
 17 23  2  0  0  0  0
 18 19  2  0  0  0  0
 18 38  1  0  0  0  0
 19 20  1  0  0  0  0
 19 21  1  0  0  0  0
 20 39  1  0  0  0  0
 20 40  1  0  0  0  0
 21 22  2  0  0  0  0
 21 41  1  0  0  0  0
 22 23  1  0  0  0  0
 22 42  1  0  0  0  0
M  END
$$$$
