CHEMBL3740554
 OpenBabel04072215373D

 59 63  0  0  0  0  0  0  0  0999 V2000
    0.9871   -1.7914    4.1910 C   0  0  0  0  0  0  0  0  0  0  0  0
    0.4836   -0.4091    3.2041 S   0  0  0  0  0  0  0  0  0  0  0  0
    1.6180   -0.0003    2.3972 O   0  0  0  0  0  0  0  0  0  0  0  0
   -0.7867   -0.7404    2.5862 O   0  0  0  0  0  0  0  0  0  0  0  0
    0.1863    0.8669    4.4025 C   0  0  0  0  0  0  0  0  0  0  0  0
    1.2306    1.7158    4.7683 C   0  0  0  0  0  0  0  0  0  0  0  0
    0.9745    2.7832    5.6314 C   0  0  0  0  0  0  0  0  0  0  0  0
   -0.3197    3.0293    6.1148 C   0  0  0  0  0  0  0  0  0  0  0  0
   -0.6079    4.1164    6.9584 N   0  0  0  0  0  0  0  0  0  0  0  0
    0.0241    5.3649    6.9435 C   0  0  0  0  0  0  0  0  0  0  0  0
    0.1335    5.9835    8.1256 N   0  0  0  0  0  0  0  0  0  0  0  0
    0.7498    7.1786    8.1234 C   0  0  0  0  0  0  0  0  0  0  0  0
    1.2477    7.7761    6.9932 C   0  0  0  0  0  0  0  0  0  0  0  0
    1.0424    7.0880    5.8182 C   0  0  0  0  0  0  0  0  0  0  0  0
    1.4559    7.5338    4.5757 O   0  0  0  0  0  0  0  0  0  0  0  0
    1.6521    8.8854    4.4087 C   0  0  0  0  0  0  0  0  0  0  0  0
    2.9008    9.3006    3.9443 C   0  0  0  0  0  0  0  0  0  0  0  0
    3.2015   10.6671    3.9448 C   0  0  0  0  0  0  0  0  0  0  0  0
    2.2248   11.6112    4.3247 C   0  0  0  0  0  0  0  0  0  0  0  0
    2.4244   13.0006    4.3054 C   0  0  0  0  0  0  0  0  0  0  0  0
    2.0176   13.7063    5.6586 C   0  0  0  0  0  0  0  0  0  0  0  0
    1.9323   13.0586    6.6966 O   0  0  0  0  0  0  0  0  0  0  0  0
    1.7514   15.0751    5.5450 N   0  0  0  0  0  0  0  0  0  0  0  0
    1.1442   15.9691    6.4673 C   0  0  0  0  0  0  0  0  0  0  0  0
    0.6405   15.6175    7.7200 C   0  0  0  0  0  0  0  0  0  0  0  0
    0.0611   16.5927    8.5534 C   0  0  0  0  0  0  0  0  0  0  0  0
   -0.0259   17.9233    8.1440 C   0  0  0  0  0  0  0  0  0  0  0  0
    0.4507   18.2815    6.8889 C   0  0  0  0  0  0  0  0  0  0  0  0
    1.0236   17.3114    6.0582 C   0  0  0  0  0  0  0  0  0  0  0  0
    1.7338   13.5716    3.2550 C   0  0  0  0  0  0  0  0  0  0  0  0
    0.4040   13.1717    3.1057 C   0  0  0  0  0  0  0  0  0  0  0  0
   -0.0580   12.0381    3.7907 C   0  0  0  0  0  0  0  0  0  0  0  0
    0.9005   11.1553    4.3125 C   0  0  0  0  0  0  0  0  0  0  0  0
    0.6260    9.7954    4.5570 C   0  0  0  0  0  0  0  0  0  0  0  0
    0.4571    5.8790    5.7857 N   0  0  0  0  0  0  0  0  0  0  0  0
   -1.3406    2.1266    5.7859 C   0  0  0  0  0  0  0  0  0  0  0  0
   -1.0998    1.0593    4.9118 C   0  0  0  0  0  0  0  0  0  0  0  0
    1.1904   -2.6272    3.5179 H   0  0  0  0  0  0  0  0  0  0  0  0
    0.1787   -2.0536    4.8755 H   0  0  0  0  0  0  0  0  0  0  0  0
    1.8935   -1.5280    4.7390 H   0  0  0  0  0  0  0  0  0  0  0  0
    2.2330    1.5795    4.3702 H   0  0  0  0  0  0  0  0  0  0  0  0
    1.7952    3.4441    5.9024 H   0  0  0  0  0  0  0  0  0  0  0  0
   -0.7331    3.8551    7.9402 H   0  0  0  0  0  0  0  0  0  0  0  0
    0.8317    7.6611    9.0933 H   0  0  0  0  0  0  0  0  0  0  0  0
    1.7552    8.7290    7.0468 H   0  0  0  0  0  0  0  0  0  0  0  0
    3.6257    8.5732    3.5853 H   0  0  0  0  0  0  0  0  0  0  0  0
    4.1746   10.9933    3.5783 H   0  0  0  0  0  0  0  0  0  0  0  0
    1.9792   15.4982    4.6588 H   0  0  0  0  0  0  0  0  0  0  0  0
    0.6718   14.5919    8.0729 H   0  0  0  0  0  0  0  0  0  0  0  0
   -0.3259   16.3113    9.5307 H   0  0  0  0  0  0  0  0  0  0  0  0
   -0.4653   18.6754    8.7974 H   0  0  0  0  0  0  0  0  0  0  0  0
    0.3787   19.3140    6.5543 H   0  0  0  0  0  0  0  0  0  0  0  0
    1.3741   17.6262    5.0794 H   0  0  0  0  0  0  0  0  0  0  0  0
    2.1853   14.3611    2.6609 H   0  0  0  0  0  0  0  0  0  0  0  0
   -0.2443   13.7137    2.4248 H   0  0  0  0  0  0  0  0  0  0  0  0
   -1.0997   11.7429    3.6940 H   0  0  0  0  0  0  0  0  0  0  0  0
   -0.3900    9.4679    4.7288 H   0  0  0  0  0  0  0  0  0  0  0  0
   -2.3472    2.2880    6.1637 H   0  0  0  0  0  0  0  0  0  0  0  0
   -1.9232    0.4140    4.6147 H   0  0  0  0  0  0  0  0  0  0  0  0
  1  2  1  0  0  0  0
  1 38  1  0  0  0  0
  1 39  1  0  0  0  0
  1 40  1  0  0  0  0
  2  3  2  0  0  0  0
  2  4  2  0  0  0  0
  2  5  1  0  0  0  0
  5  6  1  0  0  0  0
  5 37  2  0  0  0  0
  6  7  2  0  0  0  0
  6 41  1  0  0  0  0
  7  8  1  0  0  0  0
  7 42  1  0  0  0  0
  8  9  1  0  0  0  0
  8 36  2  0  0  0  0
  9 10  1  0  0  0  0
  9 43  1  0  0  0  0
 10 11  1  0  0  0  0
 10 35  2  0  0  0  0
 11 12  2  0  0  0  0
 12 13  1  0  0  0  0
 12 44  1  0  0  0  0
 13 14  2  0  0  0  0
 13 45  1  0  0  0  0
 14 15  1  0  0  0  0
 14 35  1  0  0  0  0
 15 16  1  0  0  0  0
 16 17  1  0  0  0  0
 16 34  2  0  0  0  0
 17 18  2  0  0  0  0
 17 46  1  0  0  0  0
 18 19  1  0  0  0  0
 18 47  1  0  0  0  0
 19 20  1  0  0  0  0
 19 33  2  0  0  0  0
 20 21  1  0  0  0  0
 20 30  2  0  0  0  0
 21 22  2  0  0  0  0
 21 23  1  0  0  0  0
 23 24  1  0  0  0  0
 23 48  1  0  0  0  0
 24 25  1  0  0  0  0
 24 29  2  0  0  0  0
 25 26  2  0  0  0  0
 25 49  1  0  0  0  0
 26 27  1  0  0  0  0
 26 50  1  0  0  0  0
 27 28  2  0  0  0  0
 27 51  1  0  0  0  0
 28 29  1  0  0  0  0
 28 52  1  0  0  0  0
 29 53  1  0  0  0  0
 30 31  1  0  0  0  0
 30 54  1  0  0  0  0
 31 32  2  0  0  0  0
 31 55  1  0  0  0  0
 32 33  1  0  0  0  0
 32 56  1  0  0  0  0
 33 34  1  0  0  0  0
 34 57  1  0  0  0  0
 36 37  1  0  0  0  0
 36 58  1  0  0  0  0
 37 59  1  0  0  0  0
M  END
$$$$
