CHEMBL258015
 OpenBabel04072215363D

 63 68  0  0  0  0  0  0  0  0999 V2000
    4.2706   -2.5144    1.0879 C   0  0  0  0  0  0  0  0  0  0  0  0
    3.8589   -1.2204    0.7058 O   0  0  0  0  0  0  0  0  0  0  0  0
    4.7130   -0.7518   -0.3028 N   0  0  0  0  0  0  0  0  0  0  0  0
    4.3063    0.4046   -0.7283 C   0  0  0  0  0  0  0  0  0  0  0  0
    3.0640    1.1323   -0.1944 C   0  0  0  0  0  0  0  0  0  0  0  0
    5.0710    1.0596   -1.8433 C   0  0  0  0  0  0  0  0  0  0  0  0
    4.5348    2.2741   -2.2774 C   0  0  0  0  0  0  0  0  0  0  0  0
    5.1203    2.9066   -3.3342 C   0  0  0  0  0  0  0  0  0  0  0  0
    6.2397    2.3711   -3.9194 C   0  0  0  0  0  0  0  0  0  0  0  0
    6.8662    1.1536   -3.5374 C   0  0  0  0  0  0  0  0  0  0  0  0
    6.2429    0.4838   -2.4383 C   0  0  0  0  0  0  0  0  0  0  0  0
    7.9932    1.0609   -4.4116 C   0  0  0  0  0  0  0  0  0  0  0  0
    9.1577    0.2114   -4.4079 C   0  0  0  0  0  0  0  0  0  0  0  0
   10.3581    0.5566   -5.2952 C   0  0  0  0  0  0  0  0  0  0  0  0
   10.4675    1.7694   -6.1354 C   0  0  0  0  0  0  0  0  0  0  0  0
    9.2590    2.4739   -5.9231 C   0  0  0  0  0  0  0  0  0  0  0  0
    8.0724    2.1152   -5.2383 C   0  0  0  0  0  0  0  0  0  0  0  0
    7.0130    2.9578   -4.8804 N   0  0  0  0  0  0  0  0  0  0  0  0
    7.0687    4.3782   -5.2047 C   0  0  0  0  0  0  0  0  0  0  0  0
    6.1702    5.5763   -4.9628 C   0  0  0  0  0  0  0  0  0  0  0  0
    6.3312    6.1193   -3.5285 C   0  0  0  0  0  0  0  0  0  0  0  0
    6.6964    6.6910   -5.9151 C   0  0  0  0  0  0  0  0  0  0  0  0
    9.3897    3.9554   -5.8830 C   0  0  0  0  0  0  0  0  0  0  0  0
   10.4270    4.9848   -5.8525 C   0  0  0  0  0  0  0  0  0  0  0  0
   11.6989    4.2658   -6.1246 C   0  0  0  0  0  0  0  0  0  0  0  0
   12.5595    5.0455   -6.7852 N   0  0  0  0  0  0  0  0  0  0  0  0
   12.1459    4.7480   -8.0288 N   0  0  0  0  0  0  0  0  0  0  0  0
   11.7026    5.8975   -8.8369 C   0  0  0  0  0  0  0  0  0  0  0  0
   11.7940    3.3458   -8.0342 C   0  0  0  0  0  0  0  0  0  0  0  0
   11.6560    2.8504   -6.6672 C   0  0  0  0  0  0  0  0  0  0  0  0
   11.2496   -0.5853   -5.0704 C   0  0  0  0  0  0  0  0  0  0  0  0
   12.2975   -0.9638   -5.5797 O   0  0  0  0  0  0  0  0  0  0  0  0
   10.6276   -1.4055   -4.0983 N   0  0  0  0  0  0  0  0  0  0  0  0
    9.3259   -1.0064   -3.6266 C   0  0  0  0  0  0  0  0  0  0  0  0
    3.5911   -2.8765    1.8757 H   0  0  0  0  0  0  0  0  0  0  0  0
    5.2782   -2.4707    1.4873 H   0  0  0  0  0  0  0  0  0  0  0  0
    4.2208   -3.1991    0.2320 H   0  0  0  0  0  0  0  0  0  0  0  0
    2.5253    0.5846    0.5765 H   0  0  0  0  0  0  0  0  0  0  0  0
    2.3493    1.3025   -1.0103 H   0  0  0  0  0  0  0  0  0  0  0  0
    3.3520    2.0976    0.2406 H   0  0  0  0  0  0  0  0  0  0  0  0
    3.6989    2.7715   -1.8405 H   0  0  0  0  0  0  0  0  0  0  0  0
    4.6938    3.8698   -3.6614 H   0  0  0  0  0  0  0  0  0  0  0  0
    6.6421   -0.4477   -2.0484 H   0  0  0  0  0  0  0  0  0  0  0  0
    7.2198    4.3585   -6.2896 H   0  0  0  0  0  0  0  0  0  0  0  0
    7.9384    4.7020   -4.6250 H   0  0  0  0  0  0  0  0  0  0  0  0
    5.1416    5.3432   -5.2056 H   0  0  0  0  0  0  0  0  0  0  0  0
    7.2752    6.6800   -3.4120 H   0  0  0  0  0  0  0  0  0  0  0  0
    6.3653    5.3231   -2.7874 H   0  0  0  0  0  0  0  0  0  0  0  0
    5.5193    6.7985   -3.2856 H   0  0  0  0  0  0  0  0  0  0  0  0
    7.6861    7.0481   -5.6103 H   0  0  0  0  0  0  0  0  0  0  0  0
    6.0135    7.5484   -5.9176 H   0  0  0  0  0  0  0  0  0  0  0  0
    6.8009    6.3362   -6.9458 H   0  0  0  0  0  0  0  0  0  0  0  0
    9.2311    3.8910   -6.9582 H   0  0  0  0  0  0  0  0  0  0  0  0
    9.7133    3.6877   -4.8574 H   0  0  0  0  0  0  0  0  0  0  0  0
   10.3872    5.5917   -4.9375 H   0  0  0  0  0  0  0  0  0  0  0  0
   10.0839    5.6830   -6.6313 H   0  0  0  0  0  0  0  0  0  0  0  0
   10.9742    6.5032   -8.2679 H   0  0  0  0  0  0  0  0  0  0  0  0
   11.2251    5.6034   -9.7703 H   0  0  0  0  0  0  0  0  0  0  0  0
   12.5481    6.5743   -9.0144 H   0  0  0  0  0  0  0  0  0  0  0  0
   11.6220    2.9159   -9.0095 H   0  0  0  0  0  0  0  0  0  0  0  0
   11.0181   -2.3123   -3.8528 H   0  0  0  0  0  0  0  0  0  0  0  0
    9.3434   -0.8287   -2.5369 H   0  0  0  0  0  0  0  0  0  0  0  0
    8.6033   -1.7565   -3.8660 H   0  0  0  0  0  0  0  0  0  0  0  0
  1  2  1  0  0  0  0
  1 35  1  0  0  0  0
  1 36  1  0  0  0  0
  1 37  1  0  0  0  0
  2  3  1  0  0  0  0
  3  4  2  0  0  0  0
  4  5  1  0  0  0  0
  4  6  1  0  0  0  0
  5 38  1  0  0  0  0
  5 39  1  0  0  0  0
  5 40  1  0  0  0  0
  6  7  1  0  0  0  0
  6 11  2  0  0  0  0
  7  8  2  0  0  0  0
  7 41  1  0  0  0  0
  8  9  1  0  0  0  0
  8 42  1  0  0  0  0
  9 10  2  0  0  0  0
  9 18  1  0  0  0  0
 10 11  1  0  0  0  0
 10 12  1  0  0  0  0
 11 43  1  0  0  0  0
 12 13  1  0  0  0  0
 12 17  2  0  0  0  0
 13 14  2  0  0  0  0
 13 34  1  0  0  0  0
 14 15  1  0  0  0  0
 14 31  1  0  0  0  0
 15 16  2  0  0  0  0
 15 30  1  0  0  0  0
 16 17  1  0  0  0  0
 16 23  1  0  0  0  0
 17 18  1  0  0  0  0
 18 19  1  0  0  0  0
 19 20  1  0  0  0  0
 19 44  1  0  0  0  0
 19 45  1  0  0  0  0
 20 21  1  0  0  0  0
 20 22  1  0  0  0  0
 20 46  1  0  0  0  0
 21 47  1  0  0  0  0
 21 48  1  0  0  0  0
 21 49  1  0  0  0  0
 22 50  1  0  0  0  0
 22 51  1  0  0  0  0
 22 52  1  0  0  0  0
 23 24  1  0  0  0  0
 23 53  1  0  0  0  0
 23 54  1  0  0  0  0
 24 25  1  0  0  0  0
 24 55  1  0  0  0  0
 24 56  1  0  0  0  0
 25 26  2  0  0  0  0
 25 30  1  0  0  0  0
 26 27  1  0  0  0  0
 27 28  1  0  0  0  0
 27 29  1  0  0  0  0
 28 57  1  0  0  0  0
 28 58  1  0  0  0  0
 28 59  1  0  0  0  0
 29 30  2  0  0  0  0
 29 60  1  0  0  0  0
 31 32  2  0  0  0  0
 31 33  1  0  0  0  0
 33 34  1  0  0  0  0
 33 61  1  0  0  0  0
 34 62  1  0  0  0  0
 34 63  1  0  0  0  0
M  END
$$$$
