CHEMBL231415
 OpenBabel04072215363D

 48 51  0  0  0  0  0  0  0  0999 V2000
    1.2843   -0.2452   -1.8036 N   0  0  0  0  0  0  0  0  0  0  0  0
    2.6388   -0.2608   -1.4906 C   0  0  0  0  0  0  0  0  0  0  0  0
    3.3232    0.8045   -1.9642 N   0  0  0  0  0  0  0  0  0  0  0  0
    4.6283    0.9466   -1.6887 C   0  0  0  0  0  0  0  0  0  0  0  0
    5.3553    0.0630   -0.9280 C   0  0  0  0  0  0  0  0  0  0  0  0
    4.6595   -1.0526   -0.4521 C   0  0  0  0  0  0  0  0  0  0  0  0
    5.3415   -2.2960    0.5150 S   0  0  0  0  0  0  0  0  0  0  0  0
    3.8744   -3.1376    0.5761 C   0  0  0  0  0  0  0  0  0  0  0  0
    2.8420   -2.5053   -0.0973 C   0  0  0  0  0  0  0  0  0  0  0  0
    1.5033   -3.1113   -0.0546 C   0  0  0  0  0  0  0  0  0  0  0  0
    1.0626   -3.7016    1.1334 C   0  0  0  0  0  0  0  0  0  0  0  0
   -0.1997   -4.2843    1.2245 C   0  0  0  0  0  0  0  0  0  0  0  0
   -1.0859   -4.2629    0.1482 C   0  0  0  0  0  0  0  0  0  0  0  0
   -2.3911   -4.7942    0.2277 N   0  0  0  0  0  0  0  0  0  0  0  0
   -2.9241   -5.4509    1.3172 C   0  0  0  0  0  0  0  0  0  0  0  0
   -2.3292   -5.7581    2.3481 O   0  0  0  0  0  0  0  0  0  0  0  0
   -4.2682   -5.7079    1.1817 N   0  0  0  0  0  0  0  0  0  0  0  0
   -4.9777   -6.3586    2.2811 C   0  0  0  0  0  0  0  0  0  0  0  0
   -4.8366   -7.8846    2.1981 C   0  0  0  0  0  0  0  0  0  0  0  0
   -5.6816   -8.5989    3.2512 C   0  0  0  0  0  0  0  0  0  0  0  0
   -7.1343   -8.1423    3.1987 C   0  0  0  0  0  0  0  0  0  0  0  0
   -7.2386   -6.6322    3.3822 C   0  0  0  0  0  0  0  0  0  0  0  0
   -6.4327   -5.8913    2.3201 C   0  0  0  0  0  0  0  0  0  0  0  0
   -0.6609   -3.6689   -1.0441 C   0  0  0  0  0  0  0  0  0  0  0  0
    0.6371   -3.1339   -1.1536 C   0  0  0  0  0  0  0  0  0  0  0  0
    3.2968   -1.2604   -0.7198 C   0  0  0  0  0  0  0  0  0  0  0  0
    1.0491    0.6741   -2.1633 H   0  0  0  0  0  0  0  0  0  0  0  0
    0.6990   -0.5673   -1.0433 H   0  0  0  0  0  0  0  0  0  0  0  0
    5.0952    1.8334   -2.1068 H   0  0  0  0  0  0  0  0  0  0  0  0
    6.4046    0.2213   -0.7122 H   0  0  0  0  0  0  0  0  0  0  0  0
    3.8385   -4.0676    1.1291 H   0  0  0  0  0  0  0  0  0  0  0  0
    1.6859   -3.7242    2.0236 H   0  0  0  0  0  0  0  0  0  0  0  0
   -0.4549   -4.7293    2.1786 H   0  0  0  0  0  0  0  0  0  0  0  0
   -2.9960   -4.6610   -0.5690 H   0  0  0  0  0  0  0  0  0  0  0  0
   -4.6217   -5.8537    0.2465 H   0  0  0  0  0  0  0  0  0  0  0  0
   -4.5119   -6.0343    3.2223 H   0  0  0  0  0  0  0  0  0  0  0  0
   -3.7863   -8.1740    2.3285 H   0  0  0  0  0  0  0  0  0  0  0  0
   -5.1302   -8.2349    1.2011 H   0  0  0  0  0  0  0  0  0  0  0  0
   -5.2701   -8.3984    4.2490 H   0  0  0  0  0  0  0  0  0  0  0  0
   -5.6271   -9.6825    3.0966 H   0  0  0  0  0  0  0  0  0  0  0  0
   -7.7135   -8.6513    3.9781 H   0  0  0  0  0  0  0  0  0  0  0  0
   -7.5736   -8.4250    2.2333 H   0  0  0  0  0  0  0  0  0  0  0  0
   -6.8713   -6.3595    4.3796 H   0  0  0  0  0  0  0  0  0  0  0  0
   -8.2873   -6.3210    3.3315 H   0  0  0  0  0  0  0  0  0  0  0  0
   -6.4625   -4.8144    2.5302 H   0  0  0  0  0  0  0  0  0  0  0  0
   -6.9012   -6.0293    1.3381 H   0  0  0  0  0  0  0  0  0  0  0  0
   -1.3191   -3.6110   -1.9066 H   0  0  0  0  0  0  0  0  0  0  0  0
    0.9495   -2.7254   -2.1124 H   0  0  0  0  0  0  0  0  0  0  0  0
  1  2  1  0  0  0  0
  1 27  1  0  0  0  0
  1 28  1  0  0  0  0
  2  3  1  0  0  0  0
  2 26  2  0  0  0  0
  3  4  2  0  0  0  0
  4  5  1  0  0  0  0
  4 29  1  0  0  0  0
  5  6  2  0  0  0  0
  5 30  1  0  0  0  0
  6  7  1  0  0  0  0
  6 26  1  0  0  0  0
  7  8  1  0  0  0  0
  8  9  2  0  0  0  0
  8 31  1  0  0  0  0
  9 10  1  0  0  0  0
  9 26  1  0  0  0  0
 10 11  1  0  0  0  0
 10 25  2  0  0  0  0
 11 12  2  0  0  0  0
 11 32  1  0  0  0  0
 12 13  1  0  0  0  0
 12 33  1  0  0  0  0
 13 14  1  0  0  0  0
 13 24  2  0  0  0  0
 14 15  1  0  0  0  0
 14 34  1  0  0  0  0
 15 16  2  0  0  0  0
 15 17  1  0  0  0  0
 17 18  1  0  0  0  0
 17 35  1  0  0  0  0
 18 19  1  0  0  0  0
 18 23  1  0  0  0  0
 18 36  1  0  0  0  0
 19 20  1  0  0  0  0
 19 37  1  0  0  0  0
 19 38  1  0  0  0  0
 20 21  1  0  0  0  0
 20 39  1  0  0  0  0
 20 40  1  0  0  0  0
 21 22  1  0  0  0  0
 21 41  1  0  0  0  0
 21 42  1  0  0  0  0
 22 23  1  0  0  0  0
 22 43  1  0  0  0  0
 22 44  1  0  0  0  0
 23 45  1  0  0  0  0
 23 46  1  0  0  0  0
 24 25  1  0  0  0  0
 24 47  1  0  0  0  0
 25 48  1  0  0  0  0
M  END
$$$$
