CHEMBL3690435
 OpenBabel04072215373D

 59 61  0  0  1  0  0  0  0  0999 V2000
    4.7405    6.1695   -3.9466 C   0  0  0  0  0  0  0  0  0  0  0  0
    5.2771    4.7315   -3.9051 C   0  0  0  0  0  0  0  0  0  0  0  0
    6.3197    4.6285   -2.7830 C   0  0  0  0  0  0  0  0  0  0  0  0
    4.1105    3.8422   -3.6445 N   0  0  0  0  0  0  0  0  0  0  0  0
    4.3538    2.5756   -3.5726 C   0  0  0  0  0  0  0  0  0  0  0  0
    3.2526    1.5505   -3.3840 C   0  0  3  0  0  0  0  0  0  0  0  0
    2.0533    2.0543   -2.6082 C   0  0  0  0  0  0  0  0  0  0  0  0
    1.3162    1.3002   -1.8553 N   0  0  0  0  0  0  0  0  0  0  0  0
    2.7988    1.0394   -4.7402 C   0  0  0  0  0  0  0  0  0  0  0  0
    2.1996    1.9937   -5.6738 C   0  0  0  0  0  0  0  0  0  0  0  0
    1.7483    1.5709   -6.8646 C   0  0  0  0  0  0  0  0  0  0  0  0
    1.8834    0.2286   -7.2347 N   0  0  0  0  0  0  0  0  0  0  0  0
    1.5551   -0.4456   -8.4152 C   0  0  0  0  0  0  0  0  0  0  0  0
    1.0415    0.1405   -9.6676 C   0  0  0  0  0  0  0  0  0  0  0  0
    1.4224    1.4311  -10.0530 C   0  0  0  0  0  0  0  0  0  0  0  0
    0.9396    2.0053  -11.2198 C   0  0  0  0  0  0  0  0  0  0  0  0
    0.1301    1.2645  -12.0713 C   0  0  0  0  0  0  0  0  0  0  0  0
   -0.2042   -0.0602  -11.7804 C   0  0  0  0  0  0  0  0  0  0  0  0
   -0.9377   -0.8725  -12.6879 N   0  0  0  0  0  0  0  0  0  0  0  0
   -1.3438   -0.4988  -13.9516 C   0  0  0  0  0  0  0  0  0  0  0  0
   -1.1401    0.5803  -14.5006 O   0  0  0  0  0  0  0  0  0  0  0  0
   -2.0927   -1.4530  -14.5974 N   0  0  0  0  0  0  0  0  0  0  0  0
   -2.5761   -1.1395  -15.9550 C   0  0  0  0  0  0  0  0  0  0  0  0
   -1.5818   -1.3473  -17.1080 C   0  0  0  0  0  0  0  0  0  0  0  0
   -0.4236   -1.9092  -16.6942 F   0  0  0  0  0  0  0  0  0  0  0  0
   -2.1176   -2.1894  -18.0285 F   0  0  0  0  0  0  0  0  0  0  0  0
   -1.2872   -0.1962  -17.7478 F   0  0  0  0  0  0  0  0  0  0  0  0
    0.2258   -0.6030  -10.5538 C   0  0  0  0  0  0  0  0  0  0  0  0
    1.8856   -1.7647   -8.1383 C   0  0  0  0  0  0  0  0  0  0  0  0
    2.4243   -1.9200   -6.8891 N   0  0  0  0  0  0  0  0  0  0  0  0
    2.4360   -0.7147   -6.3678 C   0  0  0  0  0  0  0  0  0  0  0  0
    2.9010   -0.2632   -5.0952 C   0  0  0  0  0  0  0  0  0  0  0  0
    5.9095    4.3568   -5.2693 C   0  0  0  0  0  0  0  0  0  0  0  0
    5.0770    4.3954   -6.3541 N   0  0  0  0  0  0  0  0  0  0  0  0
    7.0686    3.9918   -5.4079 O   0  0  0  0  0  0  0  0  0  0  0  0
    4.3227    6.4632   -2.9756 H   0  0  0  0  0  0  0  0  0  0  0  0
    3.9386    6.2872   -4.6842 H   0  0  0  0  0  0  0  0  0  0  0  0
    5.5325    6.8823   -4.2026 H   0  0  0  0  0  0  0  0  0  0  0  0
    5.8975    4.9132   -1.8119 H   0  0  0  0  0  0  0  0  0  0  0  0
    7.1755    5.2818   -2.9876 H   0  0  0  0  0  0  0  0  0  0  0  0
    6.7170    3.6131   -2.6815 H   0  0  0  0  0  0  0  0  0  0  0  0
    5.3714    2.1614   -3.6917 H   0  0  0  0  0  0  0  0  0  0  0  0
    3.6937    0.7291   -2.8039 H   0  0  0  0  0  0  0  0  0  0  0  0
    1.7684    3.1137   -2.7277 H   0  0  0  0  0  0  0  0  0  0  0  0
    1.6503    0.3307   -1.8516 H   0  0  0  0  0  0  0  0  0  0  0  0
    2.1063    3.0380   -5.3898 H   0  0  0  0  0  0  0  0  0  0  0  0
    1.2679    2.2530   -7.5498 H   0  0  0  0  0  0  0  0  0  0  0  0
    2.1267    2.0154   -9.4712 H   0  0  0  0  0  0  0  0  0  0  0  0
    1.2150    3.0208  -11.4890 H   0  0  0  0  0  0  0  0  0  0  0  0
   -0.1999    1.7632  -12.9751 H   0  0  0  0  0  0  0  0  0  0  0  0
   -1.1329   -1.8206  -12.4008 H   0  0  0  0  0  0  0  0  0  0  0  0
   -1.9248   -2.4219  -14.3707 H   0  0  0  0  0  0  0  0  0  0  0  0
   -2.9100   -0.0944  -15.9703 H   0  0  0  0  0  0  0  0  0  0  0  0
   -3.4669   -1.7552  -16.1158 H   0  0  0  0  0  0  0  0  0  0  0  0
   -0.0585   -1.6189  -10.2888 H   0  0  0  0  0  0  0  0  0  0  0  0
    1.7916   -2.6151   -8.8020 H   0  0  0  0  0  0  0  0  0  0  0  0
    3.3236   -1.0115   -4.4328 H   0  0  0  0  0  0  0  0  0  0  0  0
    4.0720    4.4534   -6.2348 H   0  0  0  0  0  0  0  0  0  0  0  0
    5.4518    4.0261   -7.2203 H   0  0  0  0  0  0  0  0  0  0  0  0
  1  2  1  0  0  0  0
  1 36  1  0  0  0  0
  1 37  1  0  0  0  0
  1 38  1  0  0  0  0
  2  3  1  0  0  0  0
  2  4  1  0  0  0  0
  2 33  1  0  0  0  0
  3 39  1  0  0  0  0
  3 40  1  0  0  0  0
  3 41  1  0  0  0  0
  4  5  2  0  0  0  0
  5  6  1  0  0  0  0
  5 42  1  0  0  0  0
  6  7  1  0  0  0  0
  6  9  1  0  0  0  0
  6 43  1  0  0  0  0
  7  8  2  0  0  0  0
  7 44  1  0  0  0  0
  8 45  1  0  0  0  0
  9 10  1  0  0  0  0
  9 32  2  0  0  0  0
 10 11  2  0  0  0  0
 10 46  1  0  0  0  0
 11 12  1  0  0  0  0
 11 47  1  0  0  0  0
 12 13  1  0  0  0  0
 12 31  1  0  0  0  0
 13 14  1  0  0  0  0
 13 29  2  0  0  0  0
 14 15  1  0  0  0  0
 14 28  2  0  0  0  0
 15 16  2  0  0  0  0
 15 48  1  0  0  0  0
 16 17  1  0  0  0  0
 16 49  1  0  0  0  0
 17 18  2  0  0  0  0
 17 50  1  0  0  0  0
 18 19  1  0  0  0  0
 18 28  1  0  0  0  0
 19 20  1  0  0  0  0
 19 51  1  0  0  0  0
 20 21  2  0  0  0  0
 20 22  1  0  0  0  0
 22 23  1  0  0  0  0
 22 52  1  0  0  0  0
 23 24  1  0  0  0  0
 23 53  1  0  0  0  0
 23 54  1  0  0  0  0
 24 25  1  0  0  0  0
 24 26  1  0  0  0  0
 24 27  1  0  0  0  0
 28 55  1  0  0  0  0
 29 30  1  0  0  0  0
 29 56  1  0  0  0  0
 30 31  2  0  0  0  0
 31 32  1  0  0  0  0
 32 57  1  0  0  0  0
 33 34  1  0  0  0  0
 33 35  2  0  0  0  0
 34 58  1  0  0  0  0
 34 59  1  0  0  0  0
M  END
$$$$
