CHEMBL3694722
 OpenBabel04072215373D

 54 57  0  0  0  0  0  0  0  0999 V2000
    8.0503   -1.4521   -3.4389 C   0  0  0  0  0  0  0  0  0  0  0  0
    7.6758   -1.5234   -2.0698 O   0  0  0  0  0  0  0  0  0  0  0  0
    6.4776   -0.7864   -1.8166 C   0  0  0  0  0  0  0  0  0  0  0  0
    6.1135   -0.8906   -0.3534 C   0  0  0  0  0  0  0  0  0  0  0  0
    6.9766   -0.4313    0.6158 C   0  0  0  0  0  0  0  0  0  0  0  0
    6.5513   -0.5583    1.9268 C   0  0  0  0  0  0  0  0  0  0  0  0
    7.3820   -0.0640    3.0493 C   0  0  0  0  0  0  0  0  0  0  0  0
    8.3164    1.0593    2.9118 C   0  0  0  0  0  0  0  0  0  0  0  0
    9.0825    1.4198    3.9378 C   0  0  0  0  0  0  0  0  0  0  0  0
    8.9796    0.7591    5.1656 N   0  0  0  0  0  0  0  0  0  0  0  0
    9.6473    0.9402    6.3761 C   0  0  0  0  0  0  0  0  0  0  0  0
   10.6125    1.9979    6.7046 C   0  0  0  0  0  0  0  0  0  0  0  0
   10.4908    3.2456    6.0929 C   0  0  0  0  0  0  0  0  0  0  0  0
   11.3430    4.2864    6.4189 C   0  0  0  0  0  0  0  0  0  0  0  0
   12.3043    4.1009    7.4045 C   0  0  0  0  0  0  0  0  0  0  0  0
   12.4263    2.8949    8.0997 C   0  0  0  0  0  0  0  0  0  0  0  0
   13.3240    2.7364    9.1978 N   0  0  0  0  0  0  0  0  0  0  0  0
   14.1357    3.7343    9.7007 C   0  0  0  0  0  0  0  0  0  0  0  0
   14.2417    4.8726    9.2770 O   0  0  0  0  0  0  0  0  0  0  0  0
   14.9343    3.3368   10.7536 N   0  0  0  0  0  0  0  0  0  0  0  0
   15.8330    4.3489   11.3353 C   0  0  0  0  0  0  0  0  0  0  0  0
   15.2575    5.2329   12.4457 C   0  0  0  0  0  0  0  0  0  0  0  0
   13.9840    4.8974   12.7498 F   0  0  0  0  0  0  0  0  0  0  0  0
   15.9861    5.0978   13.5822 F   0  0  0  0  0  0  0  0  0  0  0  0
   15.2815    6.5408   12.1092 F   0  0  0  0  0  0  0  0  0  0  0  0
   11.5936    1.8266    7.7129 C   0  0  0  0  0  0  0  0  0  0  0  0
    9.0980   -0.0203    7.2066 C   0  0  0  0  0  0  0  0  0  0  0  0
    8.1455   -0.7714    6.5774 N   0  0  0  0  0  0  0  0  0  0  0  0
    8.0841   -0.2914    5.3544 C   0  0  0  0  0  0  0  0  0  0  0  0
    7.2805   -0.6892    4.2492 C   0  0  0  0  0  0  0  0  0  0  0  0
    5.3777   -1.1388    2.2510 N   0  0  0  0  0  0  0  0  0  0  0  0
    4.6297   -1.5901    1.2535 C   0  0  0  0  0  0  0  0  0  0  0  0
    3.4630   -2.2470    1.5737 N   0  0  0  0  0  0  0  0  0  0  0  0
    4.9240   -1.4538   -0.0428 N   0  0  0  0  0  0  0  0  0  0  0  0
    8.9236   -2.0920   -3.5926 H   0  0  0  0  0  0  0  0  0  0  0  0
    8.3199   -0.4249   -3.7023 H   0  0  0  0  0  0  0  0  0  0  0  0
    7.2405   -1.8061   -4.0845 H   0  0  0  0  0  0  0  0  0  0  0  0
    5.6596   -1.1883   -2.4263 H   0  0  0  0  0  0  0  0  0  0  0  0
    6.6289    0.2658   -2.0877 H   0  0  0  0  0  0  0  0  0  0  0  0
    7.9383   -0.0109    0.3555 H   0  0  0  0  0  0  0  0  0  0  0  0
    8.3782    1.5705    1.9505 H   0  0  0  0  0  0  0  0  0  0  0  0
    9.8008    2.2262    3.8430 H   0  0  0  0  0  0  0  0  0  0  0  0
    9.7024    3.4551    5.3796 H   0  0  0  0  0  0  0  0  0  0  0  0
   11.2392    5.2520    5.9358 H   0  0  0  0  0  0  0  0  0  0  0  0
   12.9306    4.9591    7.6154 H   0  0  0  0  0  0  0  0  0  0  0  0
   13.2963    1.8587    9.6909 H   0  0  0  0  0  0  0  0  0  0  0  0
   14.6876    2.5255   11.3027 H   0  0  0  0  0  0  0  0  0  0  0  0
   16.1752    5.0056   10.5273 H   0  0  0  0  0  0  0  0  0  0  0  0
   16.7154    3.8208   11.7066 H   0  0  0  0  0  0  0  0  0  0  0  0
   11.6845    0.8646    8.2084 H   0  0  0  0  0  0  0  0  0  0  0  0
    9.3219   -0.1823    8.2540 H   0  0  0  0  0  0  0  0  0  0  0  0
    6.6143   -1.5308    4.4023 H   0  0  0  0  0  0  0  0  0  0  0  0
    3.1342   -2.0048    2.4958 H   0  0  0  0  0  0  0  0  0  0  0  0
    2.8111   -2.2496    0.8058 H   0  0  0  0  0  0  0  0  0  0  0  0
  1  2  1  0  0  0  0
  1 35  1  0  0  0  0
  1 36  1  0  0  0  0
  1 37  1  0  0  0  0
  2  3  1  0  0  0  0
  3  4  1  0  0  0  0
  3 38  1  0  0  0  0
  3 39  1  0  0  0  0
  4  5  1  0  0  0  0
  4 34  2  0  0  0  0
  5  6  2  0  0  0  0
  5 40  1  0  0  0  0
  6  7  1  0  0  0  0
  6 31  1  0  0  0  0
  7  8  1  0  0  0  0
  7 30  2  0  0  0  0
  8  9  2  0  0  0  0
  8 41  1  0  0  0  0
  9 10  1  0  0  0  0
  9 42  1  0  0  0  0
 10 11  1  0  0  0  0
 10 29  1  0  0  0  0
 11 12  1  0  0  0  0
 11 27  2  0  0  0  0
 12 13  1  0  0  0  0
 12 26  2  0  0  0  0
 13 14  2  0  0  0  0
 13 43  1  0  0  0  0
 14 15  1  0  0  0  0
 14 44  1  0  0  0  0
 15 16  2  0  0  0  0
 15 45  1  0  0  0  0
 16 17  1  0  0  0  0
 16 26  1  0  0  0  0
 17 18  1  0  0  0  0
 17 46  1  0  0  0  0
 18 19  2  0  0  0  0
 18 20  1  0  0  0  0
 20 21  1  0  0  0  0
 20 47  1  0  0  0  0
 21 22  1  0  0  0  0
 21 48  1  0  0  0  0
 21 49  1  0  0  0  0
 22 23  1  0  0  0  0
 22 24  1  0  0  0  0
 22 25  1  0  0  0  0
 26 50  1  0  0  0  0
 27 28  1  0  0  0  0
 27 51  1  0  0  0  0
 28 29  2  0  0  0  0
 29 30  1  0  0  0  0
 30 52  1  0  0  0  0
 31 32  2  0  0  0  0
 32 33  1  0  0  0  0
 32 34  1  0  0  0  0
 33 53  1  0  0  0  0
 33 54  1  0  0  0  0
M  END
$$$$
