CHEMBL260848
 OpenBabel04072215363D

 50 53  0  0  0  0  0  0  0  0999 V2000
    3.2889    2.4211   -3.5109 N   0  0  0  0  0  0  0  0  0  0  0  0
    3.6033    1.4741   -2.5220 C   0  0  0  0  0  0  0  0  0  0  0  0
    4.3437    0.4307   -2.9243 N   0  0  0  0  0  0  0  0  0  0  0  0
    4.6819   -0.4381   -1.9648 C   0  0  0  0  0  0  0  0  0  0  0  0
    4.3707   -0.3547   -0.6621 N   0  0  0  0  0  0  0  0  0  0  0  0
    3.6400    0.7124   -0.2874 C   0  0  0  0  0  0  0  0  0  0  0  0
    3.2102    1.6861   -1.1947 C   0  0  0  0  0  0  0  0  0  0  0  0
    2.3589    2.7759   -0.8857 N   0  0  0  0  0  0  0  0  0  0  0  0
    2.5761    3.4909    0.1785 C   0  0  0  0  0  0  0  0  0  0  0  0
    1.6764    4.6566    0.4371 C   0  0  0  0  0  0  0  0  0  0  0  0
    1.1168    5.2786   -0.6870 C   0  0  0  0  0  0  0  0  0  0  0  0
    0.2823    6.3741   -0.5351 C   0  0  0  0  0  0  0  0  0  0  0  0
    0.0001    6.8570    0.7419 C   0  0  0  0  0  0  0  0  0  0  0  0
    0.5251    6.2446    1.8864 C   0  0  0  0  0  0  0  0  0  0  0  0
    0.2470    6.7139    3.1977 N   0  0  0  0  0  0  0  0  0  0  0  0
   -0.6635    7.7080    3.5261 C   0  0  0  0  0  0  0  0  0  0  0  0
   -1.4327    8.2553    2.7421 O   0  0  0  0  0  0  0  0  0  0  0  0
   -0.5807    8.0693    4.8659 N   0  0  0  0  0  0  0  0  0  0  0  0
   -1.4276    9.0807    5.3862 C   0  0  0  0  0  0  0  0  0  0  0  0
   -0.8666   10.0993    6.1573 C   0  0  0  0  0  0  0  0  0  0  0  0
   -1.6653   11.1488    6.6166 C   0  0  0  0  0  0  0  0  0  0  0  0
   -3.0369   11.1556    6.3571 C   0  0  0  0  0  0  0  0  0  0  0  0
   -3.6267   10.1155    5.6254 C   0  0  0  0  0  0  0  0  0  0  0  0
   -5.1149   10.0817    5.3778 C   0  0  0  0  0  0  0  0  0  0  0  0
   -5.7845   11.1140    5.9668 F   0  0  0  0  0  0  0  0  0  0  0  0
   -5.4404   10.1348    4.0577 F   0  0  0  0  0  0  0  0  0  0  0  0
   -5.6947    8.9477    5.8629 F   0  0  0  0  0  0  0  0  0  0  0  0
   -2.8053    9.0889    5.1286 C   0  0  0  0  0  0  0  0  0  0  0  0
    1.3749    5.1364    1.7260 C   0  0  0  0  0  0  0  0  0  0  0  0
    3.7343    3.2251    1.1135 C   0  0  0  0  0  0  0  0  0  0  0  0
    3.5127    1.9267    1.8693 C   0  0  0  0  0  0  0  0  0  0  0  0
    3.3127    0.7249    1.0664 N   0  0  0  0  0  0  0  0  0  0  0  0
    3.5066    2.0283   -4.4197 H   0  0  0  0  0  0  0  0  0  0  0  0
    2.3262    2.7252   -3.3973 H   0  0  0  0  0  0  0  0  0  0  0  0
    5.2694   -1.2970   -2.2715 H   0  0  0  0  0  0  0  0  0  0  0  0
    1.3369    4.9141   -1.6877 H   0  0  0  0  0  0  0  0  0  0  0  0
   -0.1511    6.8617   -1.4052 H   0  0  0  0  0  0  0  0  0  0  0  0
   -0.6487    7.7247    0.7961 H   0  0  0  0  0  0  0  0  0  0  0  0
    0.6350    6.1897    3.9674 H   0  0  0  0  0  0  0  0  0  0  0  0
    0.3537    8.0361    5.2473 H   0  0  0  0  0  0  0  0  0  0  0  0
    0.2014   10.1274    6.3528 H   0  0  0  0  0  0  0  0  0  0  0  0
   -1.2164   11.9713    7.1686 H   0  0  0  0  0  0  0  0  0  0  0  0
   -3.6459   11.9784    6.7297 H   0  0  0  0  0  0  0  0  0  0  0  0
   -3.2538    8.2890    4.5396 H   0  0  0  0  0  0  0  0  0  0  0  0
    1.7826    4.6346    2.5983 H   0  0  0  0  0  0  0  0  0  0  0  0
    3.8655    4.0507    1.8192 H   0  0  0  0  0  0  0  0  0  0  0  0
    4.6601    3.1894    0.5258 H   0  0  0  0  0  0  0  0  0  0  0  0
    2.6417    2.0289    2.5267 H   0  0  0  0  0  0  0  0  0  0  0  0
    4.3765    1.7599    2.5233 H   0  0  0  0  0  0  0  0  0  0  0  0
    3.7565   -0.1002    1.4666 H   0  0  0  0  0  0  0  0  0  0  0  0
  1  2  1  0  0  0  0
  1 33  1  0  0  0  0
  1 34  1  0  0  0  0
  2  3  1  0  0  0  0
  2  7  2  0  0  0  0
  3  4  2  0  0  0  0
  4  5  1  0  0  0  0
  4 35  1  0  0  0  0
  5  6  2  0  0  0  0
  6  7  1  0  0  0  0
  6 32  1  0  0  0  0
  7  8  1  0  0  0  0
  8  9  2  0  0  0  0
  9 10  1  0  0  0  0
  9 30  1  0  0  0  0
 10 11  1  0  0  0  0
 10 29  2  0  0  0  0
 11 12  2  0  0  0  0
 11 36  1  0  0  0  0
 12 13  1  0  0  0  0
 12 37  1  0  0  0  0
 13 14  2  0  0  0  0
 13 38  1  0  0  0  0
 14 15  1  0  0  0  0
 14 29  1  0  0  0  0
 15 16  1  0  0  0  0
 15 39  1  0  0  0  0
 16 17  2  0  0  0  0
 16 18  1  0  0  0  0
 18 19  1  0  0  0  0
 18 40  1  0  0  0  0
 19 20  1  0  0  0  0
 19 28  2  0  0  0  0
 20 21  2  0  0  0  0
 20 41  1  0  0  0  0
 21 22  1  0  0  0  0
 21 42  1  0  0  0  0
 22 23  2  0  0  0  0
 22 43  1  0  0  0  0
 23 24  1  0  0  0  0
 23 28  1  0  0  0  0
 24 25  1  0  0  0  0
 24 26  1  0  0  0  0
 24 27  1  0  0  0  0
 28 44  1  0  0  0  0
 29 45  1  0  0  0  0
 30 31  1  0  0  0  0
 30 46  1  0  0  0  0
 30 47  1  0  0  0  0
 31 32  1  0  0  0  0
 31 48  1  0  0  0  0
 31 49  1  0  0  0  0
 32 50  1  0  0  0  0
M  END
$$$$
