CHEMBL401876
 OpenBabel04072215373D

 60 65  0  0  0  0  0  0  0  0999 V2000
    4.4766   -0.4416   -2.3674 C   0  0  0  0  0  0  0  0  0  0  0  0
    4.0170   -0.2287   -1.0417 O   0  0  0  0  0  0  0  0  0  0  0  0
    4.8852    0.6501   -0.3754 N   0  0  0  0  0  0  0  0  0  0  0  0
    4.4622    0.8921    0.8345 C   0  0  0  0  0  0  0  0  0  0  0  0
    3.1883    0.2801    1.4107 C   0  0  0  0  0  0  0  0  0  0  0  0
    5.2287    1.8451    1.7133 C   0  0  0  0  0  0  0  0  0  0  0  0
    4.6905    2.2117    2.9546 C   0  0  0  0  0  0  0  0  0  0  0  0
    5.2367    3.2360    3.7139 C   0  0  0  0  0  0  0  0  0  0  0  0
    6.3615    3.9004    3.2042 C   0  0  0  0  0  0  0  0  0  0  0  0
    7.0445    3.4330    2.0574 C   0  0  0  0  0  0  0  0  0  0  0  0
    6.4439    2.4177    1.2776 C   0  0  0  0  0  0  0  0  0  0  0  0
    8.1862    4.2215    2.0732 C   0  0  0  0  0  0  0  0  0  0  0  0
    9.3013    4.2565    1.2109 C   0  0  0  0  0  0  0  0  0  0  0  0
   10.3238    5.2758    1.5638 C   0  0  0  0  0  0  0  0  0  0  0  0
    9.9267    6.3696    2.3948 C   0  0  0  0  0  0  0  0  0  0  0  0
    8.5737    6.5155    2.1741 C   0  0  0  0  0  0  0  0  0  0  0  0
    7.9271    5.4045    2.6974 C   0  0  0  0  0  0  0  0  0  0  0  0
    7.0050    5.0436    3.6622 N   0  0  0  0  0  0  0  0  0  0  0  0
    6.9851    5.5370    5.0495 C   0  0  0  0  0  0  0  0  0  0  0  0
    5.7653    6.3909    5.3964 C   0  0  0  0  0  0  0  0  0  0  0  0
    7.1327    4.4390    6.1228 C   0  0  0  0  0  0  0  0  0  0  0  0
    8.1317    7.9571    2.0113 C   0  0  0  0  0  0  0  0  0  0  0  0
    7.9808    8.4602    3.4058 C   0  0  0  0  0  0  0  0  0  0  0  0
    9.2197    8.0790    4.1183 C   0  0  0  0  0  0  0  0  0  0  0  0
    9.4224    8.5047    5.3474 N   0  0  0  0  0  0  0  0  0  0  0  0
   10.7537    8.4940    5.3832 N   0  0  0  0  0  0  0  0  0  0  0  0
   11.2589    9.6540    6.0831 C   0  0  0  0  0  0  0  0  0  0  0  0
   11.3191    7.6128    4.4362 C   0  0  0  0  0  0  0  0  0  0  0  0
   10.2858    7.2184    3.5946 C   0  0  0  0  0  0  0  0  0  0  0  0
   11.1328    5.3858    0.3551 C   0  0  0  0  0  0  0  0  0  0  0  0
   12.0459    6.1444    0.0463 O   0  0  0  0  0  0  0  0  0  0  0  0
   10.5662    4.5018   -0.5784 N   0  0  0  0  0  0  0  0  0  0  0  0
    9.3806    3.7829   -0.1686 C   0  0  0  0  0  0  0  0  0  0  0  0
    3.8304   -1.1915   -2.8340 H   0  0  0  0  0  0  0  0  0  0  0  0
    5.5021   -0.8204   -2.3590 H   0  0  0  0  0  0  0  0  0  0  0  0
    4.4120    0.4829   -2.9468 H   0  0  0  0  0  0  0  0  0  0  0  0
    2.6317   -0.3310    0.6996 H   0  0  0  0  0  0  0  0  0  0  0  0
    2.5057    1.0716    1.7374 H   0  0  0  0  0  0  0  0  0  0  0  0
    3.4524   -0.3559    2.2609 H   0  0  0  0  0  0  0  0  0  0  0  0
    3.7972    1.7469    3.3519 H   0  0  0  0  0  0  0  0  0  0  0  0
    4.7605    3.5446    4.6354 H   0  0  0  0  0  0  0  0  0  0  0  0
    6.8803    2.1164    0.3304 H   0  0  0  0  0  0  0  0  0  0  0  0
    7.8881    6.1378    5.1629 H   0  0  0  0  0  0  0  0  0  0  0  0
    4.8323    5.8377    5.2717 H   0  0  0  0  0  0  0  0  0  0  0  0
    5.6675    7.2858    4.7840 H   0  0  0  0  0  0  0  0  0  0  0  0
    5.8280    6.7289    6.4377 H   0  0  0  0  0  0  0  0  0  0  0  0
    6.1979    3.8924    6.2838 H   0  0  0  0  0  0  0  0  0  0  0  0
    7.3881    4.8965    7.0881 H   0  0  0  0  0  0  0  0  0  0  0  0
    7.9169    3.7179    5.8761 H   0  0  0  0  0  0  0  0  0  0  0  0
    7.2528    8.0478    1.3761 H   0  0  0  0  0  0  0  0  0  0  0  0
    8.9449    8.5067    1.4980 H   0  0  0  0  0  0  0  0  0  0  0  0
    7.1165    7.9875    3.8435 H   0  0  0  0  0  0  0  0  0  0  0  0
    7.8278    9.5377    3.4296 H   0  0  0  0  0  0  0  0  0  0  0  0
   10.8576   10.5358    5.5522 H   0  0  0  0  0  0  0  0  0  0  0  0
   12.3357    9.6766    6.1030 H   0  0  0  0  0  0  0  0  0  0  0  0
   10.8224    9.6630    7.0929 H   0  0  0  0  0  0  0  0  0  0  0  0
   12.3881    7.4449    4.4566 H   0  0  0  0  0  0  0  0  0  0  0  0
   10.7909    4.6325   -1.5555 H   0  0  0  0  0  0  0  0  0  0  0  0
    9.4986    2.7081   -0.2980 H   0  0  0  0  0  0  0  0  0  0  0  0
    8.5244    4.1558   -0.7481 H   0  0  0  0  0  0  0  0  0  0  0  0
  1  2  1  0  0  0  0
  1 34  1  0  0  0  0
  1 35  1  0  0  0  0
  1 36  1  0  0  0  0
  2  3  1  0  0  0  0
  3  4  2  0  0  0  0
  4  5  1  0  0  0  0
  4  6  1  0  0  0  0
  5 37  1  0  0  0  0
  5 38  1  0  0  0  0
  5 39  1  0  0  0  0
  6  7  1  0  0  0  0
  6 11  2  0  0  0  0
  7  8  2  0  0  0  0
  7 40  1  0  0  0  0
  8  9  1  0  0  0  0
  8 41  1  0  0  0  0
  9 10  2  0  0  0  0
  9 18  1  0  0  0  0
 10 11  1  0  0  0  0
 10 12  1  0  0  0  0
 11 42  1  0  0  0  0
 12 13  1  0  0  0  0
 12 17  2  0  0  0  0
 13 14  2  0  0  0  0
 13 33  1  0  0  0  0
 14 15  1  0  0  0  0
 14 30  1  0  0  0  0
 15 16  2  0  0  0  0
 15 29  1  0  0  0  0
 16 17  1  0  0  0  0
 16 22  1  0  0  0  0
 17 18  1  0  0  0  0
 18 19  1  0  0  0  0
 19 20  1  0  0  0  0
 19 21  1  0  0  0  0
 19 43  1  0  0  0  0
 20 44  1  0  0  0  0
 20 45  1  0  0  0  0
 20 46  1  0  0  0  0
 21 47  1  0  0  0  0
 21 48  1  0  0  0  0
 21 49  1  0  0  0  0
 22 23  1  0  0  0  0
 22 50  1  0  0  0  0
 22 51  1  0  0  0  0
 23 24  1  0  0  0  0
 23 52  1  0  0  0  0
 23 53  1  0  0  0  0
 24 25  2  0  0  0  0
 24 29  1  0  0  0  0
 25 26  1  0  0  0  0
 26 27  1  0  0  0  0
 26 28  1  0  0  0  0
 27 54  1  0  0  0  0
 27 55  1  0  0  0  0
 27 56  1  0  0  0  0
 28 29  2  0  0  0  0
 28 57  1  0  0  0  0
 30 31  2  0  0  0  0
 30 32  1  0  0  0  0
 32 33  1  0  0  0  0
 32 58  1  0  0  0  0
 33 59  1  0  0  0  0
 33 60  1  0  0  0  0
M  END
$$$$
