CHEMBL3125886
 OpenBabel04072215363D

 56 60  0  0  0  0  0  0  0  0999 V2000
    0.7549    0.7099   -0.3811 N   0  0  0  0  0  0  0  0  0  0  0  0
    1.8835    0.5646   -0.5904 C   0  0  0  0  0  0  0  0  0  0  0  0
    3.2816    0.3591   -0.8541 C   0  0  0  0  0  0  0  0  0  0  0  0
    4.2653    1.2575   -0.4269 C   0  0  0  0  0  0  0  0  0  0  0  0
    3.8484    2.3824    0.2598 O   0  0  0  0  0  0  0  0  0  0  0  0
    4.5223    3.5699    0.0730 C   0  0  0  0  0  0  0  0  0  0  0  0
    4.5684    4.4382    1.1690 C   0  0  0  0  0  0  0  0  0  0  0  0
    5.2661    5.6444    1.0720 C   0  0  0  0  0  0  0  0  0  0  0  0
    5.9054    5.9755   -0.1190 C   0  0  0  0  0  0  0  0  0  0  0  0
    6.6356    7.1001   -0.1830 F   0  0  0  0  0  0  0  0  0  0  0  0
    5.8618    5.1185   -1.2192 C   0  0  0  0  0  0  0  0  0  0  0  0
    6.6128    5.4421   -2.3742 N   0  0  0  0  0  0  0  0  0  0  0  0
    7.4268    4.4901   -2.9737 C   0  0  0  0  0  0  0  0  0  0  0  0
    7.4815    3.3168   -2.6152 O   0  0  0  0  0  0  0  0  0  0  0  0
    8.2148    5.0375   -3.9773 N   0  0  0  0  0  0  0  0  0  0  0  0
    9.1824    4.2500   -4.6388 C   0  0  0  0  0  0  0  0  0  0  0  0
    8.8868    2.9635   -5.0968 C   0  0  0  0  0  0  0  0  0  0  0  0
    9.8904    2.1589   -5.6387 C   0  0  0  0  0  0  0  0  0  0  0  0
   11.2087    2.6268   -5.7154 C   0  0  0  0  0  0  0  0  0  0  0  0
   12.3222    1.7344   -6.2061 C   0  0  0  0  0  0  0  0  0  0  0  0
   11.9000    0.5087   -6.6237 F   0  0  0  0  0  0  0  0  0  0  0  0
   12.9965    2.2751   -7.2588 F   0  0  0  0  0  0  0  0  0  0  0  0
   13.2593    1.4990   -5.2456 F   0  0  0  0  0  0  0  0  0  0  0  0
   11.4872    3.9387   -5.2960 C   0  0  0  0  0  0  0  0  0  0  0  0
   10.4736    4.7570   -4.7870 C   0  0  0  0  0  0  0  0  0  0  0  0
    5.1242    3.9384   -1.1341 C   0  0  0  0  0  0  0  0  0  0  0  0
    5.6147    0.9764   -0.6567 C   0  0  0  0  0  0  0  0  0  0  0  0
    5.9975   -0.1500   -1.3880 C   0  0  0  0  0  0  0  0  0  0  0  0
    5.0221   -1.0562   -1.8379 C   0  0  0  0  0  0  0  0  0  0  0  0
    5.2811   -2.2338   -2.5185 N   0  0  0  0  0  0  0  0  0  0  0  0
    4.1592   -2.8568   -2.7426 C   0  0  0  0  0  0  0  0  0  0  0  0
    3.9306   -4.0767   -3.2988 N   0  0  0  0  0  0  0  0  0  0  0  0
    4.9214   -4.9461   -3.6728 C   0  0  0  0  0  0  0  0  0  0  0  0
    6.1310   -4.8154   -3.6325 O   0  0  0  0  0  0  0  0  0  0  0  0
    4.3043   -6.2356   -4.1558 C   0  0  0  0  0  0  0  0  0  0  0  0
    3.8723   -5.8183   -5.6290 C   0  0  0  0  0  0  0  0  0  0  0  0
    4.1687   -7.1876   -5.3392 C   0  0  0  0  0  0  0  0  0  0  0  0
    2.7310   -2.0731   -2.2469 S   0  0  0  0  0  0  0  0  0  0  0  0
    3.6720   -0.7911   -1.5659 C   0  0  0  0  0  0  0  0  0  0  0  0
    4.0780    4.1662    2.0988 H   0  0  0  0  0  0  0  0  0  0  0  0
    5.3380    6.3101    1.9259 H   0  0  0  0  0  0  0  0  0  0  0  0
    6.9372    6.3978   -2.4232 H   0  0  0  0  0  0  0  0  0  0  0  0
    8.4357    6.0151   -3.8660 H   0  0  0  0  0  0  0  0  0  0  0  0
    7.8756    2.5681   -5.0223 H   0  0  0  0  0  0  0  0  0  0  0  0
    9.6386    1.1525   -5.9710 H   0  0  0  0  0  0  0  0  0  0  0  0
   12.5079    4.3167   -5.3354 H   0  0  0  0  0  0  0  0  0  0  0  0
   10.7270    5.7531   -4.4350 H   0  0  0  0  0  0  0  0  0  0  0  0
    5.0510    3.2929   -2.0060 H   0  0  0  0  0  0  0  0  0  0  0  0
    6.4010    1.6427   -0.2987 H   0  0  0  0  0  0  0  0  0  0  0  0
    7.0465   -0.3353   -1.6037 H   0  0  0  0  0  0  0  0  0  0  0  0
    2.9678   -4.3553   -3.3922 H   0  0  0  0  0  0  0  0  0  0  0  0
    4.9361   -6.9388   -3.6042 H   0  0  0  0  0  0  0  0  0  0  0  0
    4.5873   -5.2771   -6.2438 H   0  0  0  0  0  0  0  0  0  0  0  0
    2.8458   -5.4966   -5.7612 H   0  0  0  0  0  0  0  0  0  0  0  0
    5.0634   -7.6247   -5.7677 H   0  0  0  0  0  0  0  0  0  0  0  0
    3.3410   -7.8924   -5.2921 H   0  0  0  0  0  0  0  0  0  0  0  0
  1  2  3  0  0  0  0
  2  3  1  0  0  0  0
  3  4  1  0  0  0  0
  3 39  2  0  0  0  0
  4  5  1  0  0  0  0
  4 27  2  0  0  0  0
  5  6  1  0  0  0  0
  6  7  1  0  0  0  0
  6 26  2  0  0  0  0
  7  8  2  0  0  0  0
  7 40  1  0  0  0  0
  8  9  1  0  0  0  0
  8 41  1  0  0  0  0
  9 10  1  0  0  0  0
  9 11  2  0  0  0  0
 11 12  1  0  0  0  0
 11 26  1  0  0  0  0
 12 13  1  0  0  0  0
 12 42  1  0  0  0  0
 13 14  2  0  0  0  0
 13 15  1  0  0  0  0
 15 16  1  0  0  0  0
 15 43  1  0  0  0  0
 16 17  1  0  0  0  0
 16 25  2  0  0  0  0
 17 18  2  0  0  0  0
 17 44  1  0  0  0  0
 18 19  1  0  0  0  0
 18 45  1  0  0  0  0
 19 20  1  0  0  0  0
 19 24  2  0  0  0  0
 20 21  1  0  0  0  0
 20 22  1  0  0  0  0
 20 23  1  0  0  0  0
 24 25  1  0  0  0  0
 24 46  1  0  0  0  0
 25 47  1  0  0  0  0
 26 48  1  0  0  0  0
 27 28  1  0  0  0  0
 27 49  1  0  0  0  0
 28 29  2  0  0  0  0
 28 50  1  0  0  0  0
 29 30  1  0  0  0  0
 29 39  1  0  0  0  0
 30 31  2  0  0  0  0
 31 32  1  0  0  0  0
 31 38  1  0  0  0  0
 32 33  1  0  0  0  0
 32 51  1  0  0  0  0
 33 34  2  0  0  0  0
 33 35  1  0  0  0  0
 35 36  1  0  0  0  0
 35 37  1  0  0  0  0
 35 52  1  0  0  0  0
 36 37  1  0  0  0  0
 36 53  1  0  0  0  0
 36 54  1  0  0  0  0
 37 55  1  0  0  0  0
 37 56  1  0  0  0  0
 38 39  1  0  0  0  0
M  END
$$$$
