CHEMBL3984713
 OpenBabel04072215373D

 58 62  0  0  0  0  0  0  0  0999 V2000
    2.3412   -0.7618   -1.6721 C   0  0  0  0  0  0  0  0  0  0  0  0
    1.1233   -0.3505   -0.9325 C   0  0  0  0  0  0  0  0  0  0  0  0
    0.7660    0.9661   -0.5320 C   0  0  0  0  0  0  0  0  0  0  0  0
   -0.4497    0.8712    0.1004 C   0  0  0  0  0  0  0  0  0  0  0  0
   -0.8718   -0.4161    0.1219 O   0  0  0  0  0  0  0  0  0  0  0  0
    0.0905   -1.1689   -0.5023 C   0  0  0  0  0  0  0  0  0  0  0  0
   -0.1177   -2.6103   -0.6023 C   0  0  0  0  0  0  0  0  0  0  0  0
    0.7392   -3.3682   -1.0365 O   0  0  0  0  0  0  0  0  0  0  0  0
   -1.3778   -2.9698   -0.1788 N   0  0  0  0  0  0  0  0  0  0  0  0
   -1.9443   -4.2523   -0.1250 C   0  0  0  0  0  0  0  0  0  0  0  0
   -1.2211   -5.4243   -0.3367 C   0  0  0  0  0  0  0  0  0  0  0  0
   -1.8558   -6.6645   -0.2666 C   0  0  0  0  0  0  0  0  0  0  0  0
   -3.2174   -6.7462    0.0409 C   0  0  0  0  0  0  0  0  0  0  0  0
   -3.8348   -8.0201    0.1742 N   0  0  0  0  0  0  0  0  0  0  0  0
   -3.6245   -9.0007   -0.7770 C   0  0  0  0  0  0  0  0  0  0  0  0
   -4.0861  -10.2407   -0.6250 C   0  0  0  0  0  0  0  0  0  0  0  0
   -4.7473  -10.6410    0.5994 C   0  0  0  0  0  0  0  0  0  0  0  0
   -5.0208  -12.1109    0.7391 C   0  0  0  0  0  0  0  0  0  0  0  0
   -5.0307   -9.7192    1.5502 C   0  0  0  0  0  0  0  0  0  0  0  0
   -5.4978  -10.0491    2.8314 N   0  0  0  0  0  0  0  0  0  0  0  0
   -6.6235   -9.2857    3.4850 C   0  0  0  0  0  0  0  0  0  0  0  0
   -6.4299   -9.1057    5.0129 C   0  0  0  0  0  0  0  0  0  0  0  0
   -6.1596  -10.4924    5.5588 C   0  0  0  0  0  0  0  0  0  0  0  0
   -7.0221  -11.0527    6.4258 N   0  0  0  0  0  0  0  0  0  0  0  0
   -6.9924  -12.3895    6.4901 C   0  0  0  0  0  0  0  0  0  0  0  0
   -7.9025  -13.0184    7.3116 N   0  0  0  0  0  0  0  0  0  0  0  0
   -6.1626  -13.1864    5.8037 N   0  0  0  0  0  0  0  0  0  0  0  0
   -5.2911  -12.5805    4.9820 C   0  0  0  0  0  0  0  0  0  0  0  0
   -5.2176  -11.2203    4.8545 C   0  0  0  0  0  0  0  0  0  0  0  0
   -4.4725  -10.5169    3.7806 C   0  0  0  0  0  0  0  0  0  0  0  0
   -4.5701   -8.2735    1.3412 C   0  0  0  0  0  0  0  0  0  0  0  0
   -4.7603   -7.4473    2.2401 O   0  0  0  0  0  0  0  0  0  0  0  0
   -3.9422   -5.5707    0.2635 C   0  0  0  0  0  0  0  0  0  0  0  0
   -3.3108   -4.3323    0.1770 C   0  0  0  0  0  0  0  0  0  0  0  0
    2.9238    0.1123   -1.9806 H   0  0  0  0  0  0  0  0  0  0  0  0
    2.0758   -1.3212   -2.5752 H   0  0  0  0  0  0  0  0  0  0  0  0
    2.9792   -1.3917   -1.0447 H   0  0  0  0  0  0  0  0  0  0  0  0
    1.3286    1.8753   -0.6923 H   0  0  0  0  0  0  0  0  0  0  0  0
   -1.1100    1.5900    0.5644 H   0  0  0  0  0  0  0  0  0  0  0  0
   -1.9745   -2.1948    0.0959 H   0  0  0  0  0  0  0  0  0  0  0  0
   -0.1521   -5.4120   -0.5228 H   0  0  0  0  0  0  0  0  0  0  0  0
   -1.2586   -7.5649   -0.3825 H   0  0  0  0  0  0  0  0  0  0  0  0
   -3.0924   -8.7115   -1.6802 H   0  0  0  0  0  0  0  0  0  0  0  0
   -3.9256  -10.9767   -1.4098 H   0  0  0  0  0  0  0  0  0  0  0  0
   -4.7308  -12.6696   -0.1587 H   0  0  0  0  0  0  0  0  0  0  0  0
   -6.0829  -12.3052    0.9105 H   0  0  0  0  0  0  0  0  0  0  0  0
   -4.4393  -12.5352    1.5631 H   0  0  0  0  0  0  0  0  0  0  0  0
   -7.5355   -9.8767    3.3231 H   0  0  0  0  0  0  0  0  0  0  0  0
   -6.8055   -8.3161    3.0136 H   0  0  0  0  0  0  0  0  0  0  0  0
   -5.5817   -8.4419    5.2261 H   0  0  0  0  0  0  0  0  0  0  0  0
   -7.3196   -8.6666    5.4753 H   0  0  0  0  0  0  0  0  0  0  0  0
   -8.0807  -12.4426    8.1207 H   0  0  0  0  0  0  0  0  0  0  0  0
   -7.5919  -13.9668    7.4668 H   0  0  0  0  0  0  0  0  0  0  0  0
   -4.7103  -13.2399    4.3448 H   0  0  0  0  0  0  0  0  0  0  0  0
   -3.7375  -11.1794    3.3106 H   0  0  0  0  0  0  0  0  0  0  0  0
   -3.9059   -9.6640    4.1813 H   0  0  0  0  0  0  0  0  0  0  0  0
   -5.0036   -5.6123    0.4971 H   0  0  0  0  0  0  0  0  0  0  0  0
   -3.9022   -3.4377    0.3426 H   0  0  0  0  0  0  0  0  0  0  0  0
  1  2  1  0  0  0  0
  1 35  1  0  0  0  0
  1 36  1  0  0  0  0
  1 37  1  0  0  0  0
  2  3  1  0  0  0  0
  2  6  2  0  0  0  0
  3  4  2  0  0  0  0
  3 38  1  0  0  0  0
  4  5  1  0  0  0  0
  4 39  1  0  0  0  0
  5  6  1  0  0  0  0
  6  7  1  0  0  0  0
  7  8  2  0  0  0  0
  7  9  1  0  0  0  0
  9 10  1  0  0  0  0
  9 40  1  0  0  0  0
 10 11  1  0  0  0  0
 10 34  2  0  0  0  0
 11 12  2  0  0  0  0
 11 41  1  0  0  0  0
 12 13  1  0  0  0  0
 12 42  1  0  0  0  0
 13 14  1  0  0  0  0
 13 33  2  0  0  0  0
 14 15  1  0  0  0  0
 14 31  1  0  0  0  0
 15 16  2  0  0  0  0
 15 43  1  0  0  0  0
 16 17  1  0  0  0  0
 16 44  1  0  0  0  0
 17 18  1  0  0  0  0
 17 19  2  0  0  0  0
 18 45  1  0  0  0  0
 18 46  1  0  0  0  0
 18 47  1  0  0  0  0
 19 20  1  0  0  0  0
 19 31  1  0  0  0  0
 20 21  1  0  0  0  0
 20 30  1  0  0  0  0
 21 22  1  0  0  0  0
 21 48  1  0  0  0  0
 21 49  1  0  0  0  0
 22 23  1  0  0  0  0
 22 50  1  0  0  0  0
 22 51  1  0  0  0  0
 23 24  1  0  0  0  0
 23 29  2  0  0  0  0
 24 25  2  0  0  0  0
 25 26  1  0  0  0  0
 25 27  1  0  0  0  0
 26 52  1  0  0  0  0
 26 53  1  0  0  0  0
 27 28  2  0  0  0  0
 28 29  1  0  0  0  0
 28 54  1  0  0  0  0
 29 30  1  0  0  0  0
 30 55  1  0  0  0  0
 30 56  1  0  0  0  0
 31 32  2  0  0  0  0
 33 34  1  0  0  0  0
 33 57  1  0  0  0  0
 34 58  1  0  0  0  0
M  END
$$$$
