CHEMBL2031900
 OpenBabel04072215363D

 63 67  0  0  0  0  0  0  0  0999 V2000
    5.6190    1.6582    0.8092 C   0  0  0  0  0  0  0  0  0  0  0  0
    4.4207    1.2896    0.1254 O   0  0  0  0  0  0  0  0  0  0  0  0
    4.5778    0.5467   -1.0136 C   0  0  0  0  0  0  0  0  0  0  0  0
    5.7012   -0.2704   -1.2246 C   0  0  0  0  0  0  0  0  0  0  0  0
    5.9479   -0.9069   -2.4315 C   0  0  0  0  0  0  0  0  0  0  0  0
    7.1049   -1.5668   -2.5754 N   0  0  0  0  0  0  0  0  0  0  0  0
    7.3802   -2.1321   -3.7661 C   0  0  0  0  0  0  0  0  0  0  0  0
    6.5608   -2.0188   -4.8723 C   0  0  0  0  0  0  0  0  0  0  0  0
    5.3606   -1.3242   -4.7319 C   0  0  0  0  0  0  0  0  0  0  0  0
    4.6375   -1.2606   -5.9070 O   0  0  0  0  0  0  0  0  0  0  0  0
    3.8130   -0.2052   -6.2013 C   0  0  0  0  0  0  0  0  0  0  0  0
    4.0209    1.1301   -5.8802 C   0  0  0  0  0  0  0  0  0  0  0  0
    2.9936    2.0612   -6.1036 C   0  0  0  0  0  0  0  0  0  0  0  0
    1.8166    1.6513   -6.7292 C   0  0  0  0  0  0  0  0  0  0  0  0
    0.7699    2.5821   -6.8961 N   0  0  0  0  0  0  0  0  0  0  0  0
   -0.4189    2.2945   -7.5411 C   0  0  0  0  0  0  0  0  0  0  0  0
   -0.6803    1.2367   -8.1043 O   0  0  0  0  0  0  0  0  0  0  0  0
   -1.4464    3.3687   -7.5115 C   0  0  0  0  0  0  0  0  0  0  0  0
   -2.6730    3.3639   -8.0820 C   0  0  0  0  0  0  0  0  0  0  0  0
   -3.2484    2.3448   -9.0197 C   0  0  0  0  0  0  0  0  0  0  0  0
   -3.4380    4.4800   -7.7133 N   0  0  0  0  0  0  0  0  0  0  0  0
   -4.4954    5.0671   -8.5354 C   0  0  0  0  0  0  0  0  0  0  0  0
   -2.5519    5.3616   -7.0726 N   0  0  0  0  0  0  0  0  0  0  0  0
   -2.9837    6.5286   -6.4156 C   0  0  0  0  0  0  0  0  0  0  0  0
   -2.2669    7.7163   -6.5998 C   0  0  0  0  0  0  0  0  0  0  0  0
   -2.7224    8.9102   -6.0335 C   0  0  0  0  0  0  0  0  0  0  0  0
   -3.8718    8.9155   -5.2438 C   0  0  0  0  0  0  0  0  0  0  0  0
   -4.5763    7.7281   -5.0350 C   0  0  0  0  0  0  0  0  0  0  0  0
   -4.1466    6.5450   -5.6369 C   0  0  0  0  0  0  0  0  0  0  0  0
   -1.3364    4.7029   -6.8553 C   0  0  0  0  0  0  0  0  0  0  0  0
   -0.3417    5.0748   -6.2482 O   0  0  0  0  0  0  0  0  0  0  0  0
    1.6648    0.3806   -7.1441 N   0  0  0  0  0  0  0  0  0  0  0  0
    2.6435   -0.5133   -6.8770 C   0  0  0  0  0  0  0  0  0  0  0  0
    4.9954   -0.8044   -3.4645 C   0  0  0  0  0  0  0  0  0  0  0  0
    3.7714   -0.1825   -3.1499 C   0  0  0  0  0  0  0  0  0  0  0  0
    3.5815    0.5678   -1.9875 C   0  0  0  0  0  0  0  0  0  0  0  0
    2.4058    1.2571   -2.0410 O   0  0  0  0  0  0  0  0  0  0  0  0
    2.1349    2.2969   -1.1203 C   0  0  0  0  0  0  0  0  0  0  0  0
    5.4543    2.6318    1.2796 H   0  0  0  0  0  0  0  0  0  0  0  0
    6.4855    1.7712    0.1461 H   0  0  0  0  0  0  0  0  0  0  0  0
    5.8302    0.9262    1.5944 H   0  0  0  0  0  0  0  0  0  0  0  0
    6.4474   -0.4014   -0.4440 H   0  0  0  0  0  0  0  0  0  0  0  0
    8.3233   -2.6761   -3.8203 H   0  0  0  0  0  0  0  0  0  0  0  0
    6.8441   -2.4685   -5.8154 H   0  0  0  0  0  0  0  0  0  0  0  0
    4.9322    1.4481   -5.3818 H   0  0  0  0  0  0  0  0  0  0  0  0
    3.1173    3.0837   -5.7608 H   0  0  0  0  0  0  0  0  0  0  0  0
    0.8833    3.4998   -6.4760 H   0  0  0  0  0  0  0  0  0  0  0  0
   -2.6590    1.4350   -9.1205 H   0  0  0  0  0  0  0  0  0  0  0  0
   -3.3237    2.7776  -10.0245 H   0  0  0  0  0  0  0  0  0  0  0  0
   -4.2495    2.0437   -8.6974 H   0  0  0  0  0  0  0  0  0  0  0  0
   -4.8675    4.3737   -9.2955 H   0  0  0  0  0  0  0  0  0  0  0  0
   -4.1526    5.9708   -9.0506 H   0  0  0  0  0  0  0  0  0  0  0  0
   -5.3545    5.3240   -7.9069 H   0  0  0  0  0  0  0  0  0  0  0  0
   -1.3838    7.7300   -7.2330 H   0  0  0  0  0  0  0  0  0  0  0  0
   -2.1844    9.8372   -6.2169 H   0  0  0  0  0  0  0  0  0  0  0  0
   -4.2156    9.8446   -4.7928 H   0  0  0  0  0  0  0  0  0  0  0  0
   -5.4612    7.7309   -4.4007 H   0  0  0  0  0  0  0  0  0  0  0  0
   -4.7028    5.6275   -5.4633 H   0  0  0  0  0  0  0  0  0  0  0  0
    2.4313   -1.5282   -7.2016 H   0  0  0  0  0  0  0  0  0  0  0  0
    2.9424   -0.2118   -3.8514 H   0  0  0  0  0  0  0  0  0  0  0  0
    1.4269    2.9779   -1.6067 H   0  0  0  0  0  0  0  0  0  0  0  0
    3.0094    2.8979   -0.8609 H   0  0  0  0  0  0  0  0  0  0  0  0
    1.6447    1.8820   -0.2366 H   0  0  0  0  0  0  0  0  0  0  0  0
  1  2  1  0  0  0  0
  1 39  1  0  0  0  0
  1 40  1  0  0  0  0
  1 41  1  0  0  0  0
  2  3  1  0  0  0  0
  3  4  1  0  0  0  0
  3 36  2  0  0  0  0
  4  5  2  0  0  0  0
  4 42  1  0  0  0  0
  5  6  1  0  0  0  0
  5 34  1  0  0  0  0
  6  7  2  0  0  0  0
  7  8  1  0  0  0  0
  7 43  1  0  0  0  0
  8  9  2  0  0  0  0
  8 44  1  0  0  0  0
  9 10  1  0  0  0  0
  9 34  1  0  0  0  0
 10 11  1  0  0  0  0
 11 12  1  0  0  0  0
 11 33  2  0  0  0  0
 12 13  2  0  0  0  0
 12 45  1  0  0  0  0
 13 14  1  0  0  0  0
 13 46  1  0  0  0  0
 14 15  1  0  0  0  0
 14 32  2  0  0  0  0
 15 16  1  0  0  0  0
 15 47  1  0  0  0  0
 16 17  2  0  0  0  0
 16 18  1  0  0  0  0
 18 19  2  0  0  0  0
 18 30  1  0  0  0  0
 19 20  1  0  0  0  0
 19 21  1  0  0  0  0
 20 48  1  0  0  0  0
 20 49  1  0  0  0  0
 20 50  1  0  0  0  0
 21 22  1  0  0  0  0
 21 23  1  0  0  0  0
 22 51  1  0  0  0  0
 22 52  1  0  0  0  0
 22 53  1  0  0  0  0
 23 24  1  0  0  0  0
 23 30  1  0  0  0  0
 24 25  1  0  0  0  0
 24 29  2  0  0  0  0
 25 26  2  0  0  0  0
 25 54  1  0  0  0  0
 26 27  1  0  0  0  0
 26 55  1  0  0  0  0
 27 28  2  0  0  0  0
 27 56  1  0  0  0  0
 28 29  1  0  0  0  0
 28 57  1  0  0  0  0
 29 58  1  0  0  0  0
 30 31  2  0  0  0  0
 32 33  1  0  0  0  0
 33 59  1  0  0  0  0
 34 35  2  0  0  0  0
 35 36  1  0  0  0  0
 35 60  1  0  0  0  0
 36 37  1  0  0  0  0
 37 38  1  0  0  0  0
 38 61  1  0  0  0  0
 38 62  1  0  0  0  0
 38 63  1  0  0  0  0
M  END
$$$$
