CHEMBL3671504
 OpenBabel04072215373D

 47 49  0  0  0  0  0  0  0  0999 V2000
    2.0008    4.5303   -3.3707 C   0  0  0  0  0  0  0  0  0  0  0  0
    2.8076    4.2116   -2.3476 C   0  0  0  0  0  0  0  0  0  0  0  0
    3.2968    2.8126   -2.0457 C   0  0  0  0  0  0  0  0  0  0  0  0
    4.8197    2.7363   -2.1409 C   0  0  0  0  0  0  0  0  0  0  0  0
    5.3320    1.4111   -1.8658 O   0  0  0  0  0  0  0  0  0  0  0  0
    6.7171    1.3306   -1.8516 C   0  0  0  0  0  0  0  0  0  0  0  0
    7.5364    2.4410   -2.1356 C   0  0  0  0  0  0  0  0  0  0  0  0
    8.9197    2.3869   -2.1309 C   0  0  0  0  0  0  0  0  0  0  0  0
    9.5959    3.4912   -2.4538 N   0  0  0  0  0  0  0  0  0  0  0  0
   10.9258    3.3836   -2.4766 C   0  0  0  0  0  0  0  0  0  0  0  0
   11.6235    2.2793   -2.2266 N   0  0  0  0  0  0  0  0  0  0  0  0
   10.9286    1.1702   -1.9072 C   0  0  0  0  0  0  0  0  0  0  0  0
   11.6345   -0.0522   -1.7870 N   0  0  0  0  0  0  0  0  0  0  0  0
   12.9488   -0.2442   -2.2601 C   0  0  0  0  0  0  0  0  0  0  0  0
   13.3193    0.2113   -3.5332 C   0  0  0  0  0  0  0  0  0  0  0  0
   14.6493    0.1727   -3.9481 C   0  0  0  0  0  0  0  0  0  0  0  0
   15.6196   -0.3406   -3.0922 C   0  0  0  0  0  0  0  0  0  0  0  0
   17.4343   -0.3029   -3.6181 Br  0  0  0  0  0  0  0  0  0  0  0  0
   15.2676   -0.8549   -1.8463 C   0  0  0  0  0  0  0  0  0  0  0  0
   13.9365   -0.8077   -1.4431 C   0  0  0  0  0  0  0  0  0  0  0  0
   13.6050   -1.2701   -0.2285 F   0  0  0  0  0  0  0  0  0  0  0  0
    9.5321    1.1838   -1.8089 C   0  0  0  0  0  0  0  0  0  0  0  0
    8.7360    0.0678   -1.4871 C   0  0  0  0  0  0  0  0  0  0  0  0
    7.3360    0.0953   -1.5672 C   0  0  0  0  0  0  0  0  0  0  0  0
    6.5906   -1.1063   -1.4088 N   0  0  0  0  0  0  0  0  0  0  0  0
    7.1397   -2.3817   -1.5010 C   0  0  0  0  0  0  0  0  0  0  0  0
    8.3130   -2.6560   -1.7340 O   0  0  0  0  0  0  0  0  0  0  0  0
    6.1692   -3.4918   -1.3355 C   0  0  0  0  0  0  0  0  0  0  0  0
    6.5900   -4.7621   -1.4700 C   0  0  0  0  0  0  0  0  0  0  0  0
    1.6852    5.5580   -3.5334 H   0  0  0  0  0  0  0  0  0  0  0  0
    1.6361    3.7834   -4.0669 H   0  0  0  0  0  0  0  0  0  0  0  0
    3.1379    5.0092   -1.6840 H   0  0  0  0  0  0  0  0  0  0  0  0
    2.8463    2.0823   -2.7237 H   0  0  0  0  0  0  0  0  0  0  0  0
    2.9778    2.5403   -1.0341 H   0  0  0  0  0  0  0  0  0  0  0  0
    5.2322    3.4468   -1.4113 H   0  0  0  0  0  0  0  0  0  0  0  0
    5.1137    3.0280   -3.1583 H   0  0  0  0  0  0  0  0  0  0  0  0
    7.1244    3.4054   -2.4159 H   0  0  0  0  0  0  0  0  0  0  0  0
   11.4886    4.2739   -2.7374 H   0  0  0  0  0  0  0  0  0  0  0  0
   11.4466   -0.5337   -0.9127 H   0  0  0  0  0  0  0  0  0  0  0  0
   12.5661    0.6337   -4.1954 H   0  0  0  0  0  0  0  0  0  0  0  0
   14.9106    0.5722   -4.9248 H   0  0  0  0  0  0  0  0  0  0  0  0
   16.0119   -1.2628   -1.1718 H   0  0  0  0  0  0  0  0  0  0  0  0
    9.2496   -0.8348   -1.1792 H   0  0  0  0  0  0  0  0  0  0  0  0
    5.5835   -0.9957   -1.3798 H   0  0  0  0  0  0  0  0  0  0  0  0
    5.1371   -3.2642   -1.0958 H   0  0  0  0  0  0  0  0  0  0  0  0
    7.6238   -4.9904   -1.7049 H   0  0  0  0  0  0  0  0  0  0  0  0
    5.9178   -5.6000   -1.3493 H   0  0  0  0  0  0  0  0  0  0  0  0
  1  2  2  0  0  0  0
  1 30  1  0  0  0  0
  1 31  1  0  0  0  0
  2  3  1  0  0  0  0
  2 32  1  0  0  0  0
  3  4  1  0  0  0  0
  3 33  1  0  0  0  0
  3 34  1  0  0  0  0
  4  5  1  0  0  0  0
  4 35  1  0  0  0  0
  4 36  1  0  0  0  0
  5  6  1  0  0  0  0
  6  7  1  0  0  0  0
  6 24  2  0  0  0  0
  7  8  2  0  0  0  0
  7 37  1  0  0  0  0
  8  9  1  0  0  0  0
  8 22  1  0  0  0  0
  9 10  2  0  0  0  0
 10 11  1  0  0  0  0
 10 38  1  0  0  0  0
 11 12  2  0  0  0  0
 12 13  1  0  0  0  0
 12 22  1  0  0  0  0
 13 14  1  0  0  0  0
 13 39  1  0  0  0  0
 14 15  1  0  0  0  0
 14 20  2  0  0  0  0
 15 16  2  0  0  0  0
 15 40  1  0  0  0  0
 16 17  1  0  0  0  0
 16 41  1  0  0  0  0
 17 18  1  0  0  0  0
 17 19  2  0  0  0  0
 19 20  1  0  0  0  0
 19 42  1  0  0  0  0
 20 21  1  0  0  0  0
 22 23  2  0  0  0  0
 23 24  1  0  0  0  0
 23 43  1  0  0  0  0
 24 25  1  0  0  0  0
 25 26  1  0  0  0  0
 25 44  1  0  0  0  0
 26 27  2  0  0  0  0
 26 28  1  0  0  0  0
 28 29  2  0  0  0  0
 28 45  1  0  0  0  0
 29 46  1  0  0  0  0
 29 47  1  0  0  0  0
M  END
$$$$
