CHEMBL394020
 OpenBabel04072215373D

 43 45  0  0  0  0  0  0  0  0999 V2000
    2.1261    0.0761   -0.0216 C   0  0  0  0  0  0  0  0  0  0  0  0
    0.6870   -0.0519   -0.0025 N   0  0  0  0  0  0  0  0  0  0  0  0
   -0.1902    0.9949   -0.0118 C   0  0  0  0  0  0  0  0  0  0  0  0
   -1.4353    0.5786   -0.0640 N   0  0  0  0  0  0  0  0  0  0  0  0
   -1.3529   -0.7813   -0.0448 C   0  0  0  0  0  0  0  0  0  0  0  0
   -2.4412   -1.5628   -0.0121 N   0  0  0  0  0  0  0  0  0  0  0  0
   -3.7170   -1.1335   -0.5423 C   0  0  0  0  0  0  0  0  0  0  0  0
   -4.7894   -1.1487    0.5142 C   0  0  0  0  0  0  0  0  0  0  0  0
   -4.7066   -0.2888    1.6134 C   0  0  0  0  0  0  0  0  0  0  0  0
   -5.7451   -0.2762    2.5303 C   0  0  0  0  0  0  0  0  0  0  0  0
   -6.8459   -1.0519    2.4299 N   0  0  0  0  0  0  0  0  0  0  0  0
   -6.9076   -1.8782    1.3650 C   0  0  0  0  0  0  0  0  0  0  0  0
   -5.9197   -1.9637    0.3946 C   0  0  0  0  0  0  0  0  0  0  0  0
   -0.0455   -1.2210   -0.0508 C   0  0  0  0  0  0  0  0  0  0  0  0
    0.4915   -2.5571   -0.1098 C   0  0  0  0  0  0  0  0  0  0  0  0
    1.5887   -2.8299    0.3689 O   0  0  0  0  0  0  0  0  0  0  0  0
   -0.3053   -3.4496   -0.8203 N   0  0  0  0  0  0  0  0  0  0  0  0
   -0.0614   -4.8262   -1.0062 C   0  0  0  0  0  0  0  0  0  0  0  0
    0.8063   -5.5469   -0.1875 C   0  0  0  0  0  0  0  0  0  0  0  0
    1.0662   -6.8960   -0.4392 C   0  0  0  0  0  0  0  0  0  0  0  0
    0.4625   -7.5616   -1.5174 C   0  0  0  0  0  0  0  0  0  0  0  0
    0.8117   -9.0017   -1.7828 C   0  0  0  0  0  0  0  0  0  0  0  0
    1.7342   -9.4939   -0.9033 F   0  0  0  0  0  0  0  0  0  0  0  0
   -0.2573   -9.8385   -1.6853 F   0  0  0  0  0  0  0  0  0  0  0  0
    1.3520   -9.2034   -3.0153 F   0  0  0  0  0  0  0  0  0  0  0  0
   -0.4433   -6.8476   -2.3093 C   0  0  0  0  0  0  0  0  0  0  0  0
   -1.2426   -7.5761   -3.6567 Cl  0  0  0  0  0  0  0  0  0  0  0  0
   -0.7156   -5.4950   -2.0439 C   0  0  0  0  0  0  0  0  0  0  0  0
    2.3960    1.1344   -0.0827 H   0  0  0  0  0  0  0  0  0  0  0  0
    2.5152   -0.4451   -0.9005 H   0  0  0  0  0  0  0  0  0  0  0  0
    2.5300   -0.3504    0.8991 H   0  0  0  0  0  0  0  0  0  0  0  0
    0.1283    2.0296    0.0154 H   0  0  0  0  0  0  0  0  0  0  0  0
   -2.4111   -2.5113    0.3467 H   0  0  0  0  0  0  0  0  0  0  0  0
   -3.9806   -1.8319   -1.3457 H   0  0  0  0  0  0  0  0  0  0  0  0
   -3.6781   -0.1401   -1.0048 H   0  0  0  0  0  0  0  0  0  0  0  0
   -3.8502    0.3671    1.7419 H   0  0  0  0  0  0  0  0  0  0  0  0
   -5.7200    0.3853    3.3912 H   0  0  0  0  0  0  0  0  0  0  0  0
   -7.8067   -2.4852    1.3047 H   0  0  0  0  0  0  0  0  0  0  0  0
   -6.0470   -2.6437   -0.4412 H   0  0  0  0  0  0  0  0  0  0  0  0
   -1.0492   -3.0272   -1.3605 H   0  0  0  0  0  0  0  0  0  0  0  0
    1.2911   -5.0879    0.6688 H   0  0  0  0  0  0  0  0  0  0  0  0
    1.7611   -7.4192    0.2162 H   0  0  0  0  0  0  0  0  0  0  0  0
   -1.4216   -4.9628   -2.6820 H   0  0  0  0  0  0  0  0  0  0  0  0
  1  2  1  0  0  0  0
  1 29  1  0  0  0  0
  1 30  1  0  0  0  0
  1 31  1  0  0  0  0
  2  3  1  0  0  0  0
  2 14  1  0  0  0  0
  3  4  2  0  0  0  0
  3 32  1  0  0  0  0
  4  5  1  0  0  0  0
  5  6  1  0  0  0  0
  5 14  2  0  0  0  0
  6  7  1  0  0  0  0
  6 33  1  0  0  0  0
  7  8  1  0  0  0  0
  7 34  1  0  0  0  0
  7 35  1  0  0  0  0
  8  9  1  0  0  0  0
  8 13  2  0  0  0  0
  9 10  2  0  0  0  0
  9 36  1  0  0  0  0
 10 11  1  0  0  0  0
 10 37  1  0  0  0  0
 11 12  2  0  0  0  0
 12 13  1  0  0  0  0
 12 38  1  0  0  0  0
 13 39  1  0  0  0  0
 14 15  1  0  0  0  0
 15 16  2  0  0  0  0
 15 17  1  0  0  0  0
 17 18  1  0  0  0  0
 17 40  1  0  0  0  0
 18 19  1  0  0  0  0
 18 28  2  0  0  0  0
 19 20  2  0  0  0  0
 19 41  1  0  0  0  0
 20 21  1  0  0  0  0
 20 42  1  0  0  0  0
 21 22  1  0  0  0  0
 21 26  2  0  0  0  0
 22 23  1  0  0  0  0
 22 24  1  0  0  0  0
 22 25  1  0  0  0  0
 26 27  1  0  0  0  0
 26 28  1  0  0  0  0
 28 43  1  0  0  0  0
M  END
$$$$
