CHEMBL3979341
 OpenBabel04072215373D

 56 59  0  0  0  0  0  0  0  0999 V2000
    2.2184    0.5557    1.3176 C   0  0  0  0  0  0  0  0  0  0  0  0
    2.3742    0.0457   -0.0504 N   0  0  0  0  0  0  0  0  0  0  0  0
    1.8754    0.8458   -1.1123 C   0  0  0  0  0  0  0  0  0  0  0  0
    0.7501    1.6602   -0.9880 C   0  0  0  0  0  0  0  0  0  0  0  0
    0.3424    2.4178   -2.0675 C   0  0  0  0  0  0  0  0  0  0  0  0
    0.9554    2.4041   -3.2677 N   0  0  0  0  0  0  0  0  0  0  0  0
    2.0224    1.6123   -3.4173 C   0  0  0  0  0  0  0  0  0  0  0  0
    2.6693    1.5145   -4.6566 N   0  0  0  0  0  0  0  0  0  0  0  0
    2.3203    2.2238   -5.7862 C   0  0  0  0  0  0  0  0  0  0  0  0
    1.4494    3.0723   -5.9008 O   0  0  0  0  0  0  0  0  0  0  0  0
    3.1403    1.8468   -6.9807 C   0  0  0  0  0  0  0  0  0  0  0  0
    3.0160    2.6296   -8.2696 C   0  0  0  0  0  0  0  0  0  0  0  0
    2.4468    1.2439   -8.1818 C   0  0  0  0  0  0  0  0  0  0  0  0
    2.5088    0.8381   -2.3715 C   0  0  0  0  0  0  0  0  0  0  0  0
    3.0834   -1.1748   -0.1882 C   0  0  0  0  0  0  0  0  0  0  0  0
    2.7458   -2.0647   -1.2199 C   0  0  0  0  0  0  0  0  0  0  0  0
    3.4638   -3.2419   -1.4512 C   0  0  0  0  0  0  0  0  0  0  0  0
    4.5337   -3.5965   -0.6345 C   0  0  0  0  0  0  0  0  0  0  0  0
    5.2799   -4.7900   -0.7999 N   0  0  0  0  0  0  0  0  0  0  0  0
    4.9299   -5.8390   -1.6296 C   0  0  0  0  0  0  0  0  0  0  0  0
    3.9440   -5.8532   -2.3592 O   0  0  0  0  0  0  0  0  0  0  0  0
    5.7904   -6.9213   -1.5129 N   0  0  0  0  0  0  0  0  0  0  0  0
    5.5410   -8.1044   -2.2525 C   0  0  0  0  0  0  0  0  0  0  0  0
    5.5994   -9.3302   -1.5935 C   0  0  0  0  0  0  0  0  0  0  0  0
    5.2436  -10.4994   -2.2679 C   0  0  0  0  0  0  0  0  0  0  0  0
    4.8749  -10.4528   -3.6143 C   0  0  0  0  0  0  0  0  0  0  0  0
    4.8558   -9.2341   -4.3047 C   0  0  0  0  0  0  0  0  0  0  0  0
    4.4684   -9.1614   -5.7606 C   0  0  0  0  0  0  0  0  0  0  0  0
    4.1422  -10.3735   -6.2939 F   0  0  0  0  0  0  0  0  0  0  0  0
    3.3936   -8.3573   -5.9868 F   0  0  0  0  0  0  0  0  0  0  0  0
    5.4720   -8.6743   -6.5432 F   0  0  0  0  0  0  0  0  0  0  0  0
    5.1932   -8.0608   -3.6097 C   0  0  0  0  0  0  0  0  0  0  0  0
    4.8655   -2.7276    0.4080 C   0  0  0  0  0  0  0  0  0  0  0  0
    5.8939   -3.0318    1.2184 F   0  0  0  0  0  0  0  0  0  0  0  0
    4.1526   -1.5460    0.6399 C   0  0  0  0  0  0  0  0  0  0  0  0
    1.6832    1.5077    1.3809 H   0  0  0  0  0  0  0  0  0  0  0  0
    3.1909    0.7532    1.7807 H   0  0  0  0  0  0  0  0  0  0  0  0
    1.6688   -0.1656    1.9331 H   0  0  0  0  0  0  0  0  0  0  0  0
    0.1628    1.7032   -0.0774 H   0  0  0  0  0  0  0  0  0  0  0  0
   -0.5246    3.0734   -2.0046 H   0  0  0  0  0  0  0  0  0  0  0  0
    3.4223    0.8491   -4.7306 H   0  0  0  0  0  0  0  0  0  0  0  0
    4.1362    1.4758   -6.7581 H   0  0  0  0  0  0  0  0  0  0  0  0
    3.9095    2.7802   -8.8635 H   0  0  0  0  0  0  0  0  0  0  0  0
    2.3227    3.4635   -8.2973 H   0  0  0  0  0  0  0  0  0  0  0  0
    2.9502    0.4526   -8.7235 H   0  0  0  0  0  0  0  0  0  0  0  0
    1.3660    1.1479   -8.1545 H   0  0  0  0  0  0  0  0  0  0  0  0
    3.3941    0.2283   -2.5251 H   0  0  0  0  0  0  0  0  0  0  0  0
    1.8996   -1.8554   -1.8726 H   0  0  0  0  0  0  0  0  0  0  0  0
    3.1534   -3.8438   -2.2975 H   0  0  0  0  0  0  0  0  0  0  0  0
    6.0943   -4.8919   -0.2084 H   0  0  0  0  0  0  0  0  0  0  0  0
    6.1962   -7.0443   -0.5972 H   0  0  0  0  0  0  0  0  0  0  0  0
    5.8446   -9.3855   -0.5368 H   0  0  0  0  0  0  0  0  0  0  0  0
    5.2289  -11.4484   -1.7370 H   0  0  0  0  0  0  0  0  0  0  0  0
    4.5925  -11.3738   -4.1216 H   0  0  0  0  0  0  0  0  0  0  0  0
    5.1659   -7.1073   -4.1361 H   0  0  0  0  0  0  0  0  0  0  0  0
    4.4848   -0.9186    1.4584 H   0  0  0  0  0  0  0  0  0  0  0  0
  1  2  1  0  0  0  0
  1 36  1  0  0  0  0
  1 37  1  0  0  0  0
  1 38  1  0  0  0  0
  2  3  1  0  0  0  0
  2 15  1  0  0  0  0
  3  4  1  0  0  0  0
  3 14  2  0  0  0  0
  4  5  2  0  0  0  0
  4 39  1  0  0  0  0
  5  6  1  0  0  0  0
  5 40  1  0  0  0  0
  6  7  2  0  0  0  0
  7  8  1  0  0  0  0
  7 14  1  0  0  0  0
  8  9  1  0  0  0  0
  8 41  1  0  0  0  0
  9 10  2  0  0  0  0
  9 11  1  0  0  0  0
 11 12  1  0  0  0  0
 11 13  1  0  0  0  0
 11 42  1  0  0  0  0
 12 13  1  0  0  0  0
 12 43  1  0  0  0  0
 12 44  1  0  0  0  0
 13 45  1  0  0  0  0
 13 46  1  0  0  0  0
 14 47  1  0  0  0  0
 15 16  1  0  0  0  0
 15 35  2  0  0  0  0
 16 17  2  0  0  0  0
 16 48  1  0  0  0  0
 17 18  1  0  0  0  0
 17 49  1  0  0  0  0
 18 19  1  0  0  0  0
 18 33  2  0  0  0  0
 19 20  1  0  0  0  0
 19 50  1  0  0  0  0
 20 21  2  0  0  0  0
 20 22  1  0  0  0  0
 22 23  1  0  0  0  0
 22 51  1  0  0  0  0
 23 24  1  0  0  0  0
 23 32  2  0  0  0  0
 24 25  2  0  0  0  0
 24 52  1  0  0  0  0
 25 26  1  0  0  0  0
 25 53  1  0  0  0  0
 26 27  2  0  0  0  0
 26 54  1  0  0  0  0
 27 28  1  0  0  0  0
 27 32  1  0  0  0  0
 28 29  1  0  0  0  0
 28 30  1  0  0  0  0
 28 31  1  0  0  0  0
 32 55  1  0  0  0  0
 33 34  1  0  0  0  0
 33 35  1  0  0  0  0
 35 56  1  0  0  0  0
M  END
$$$$
