CHEMBL259013
 OpenBabel04072215363D

 50 53  0  0  0  0  0  0  0  0999 V2000
    4.2459    1.5222    3.1287 N   0  0  0  0  0  0  0  0  0  0  0  0
    4.8103    1.3006    1.8614 C   0  0  0  0  0  0  0  0  0  0  0  0
    5.6293    0.2423    1.7564 N   0  0  0  0  0  0  0  0  0  0  0  0
    6.1131    0.0085    0.5314 C   0  0  0  0  0  0  0  0  0  0  0  0
    5.8518    0.7104   -0.5799 N   0  0  0  0  0  0  0  0  0  0  0  0
    5.0127    1.7549   -0.4434 C   0  0  0  0  0  0  0  0  0  0  0  0
    4.4445    2.1136    0.7861 C   0  0  0  0  0  0  0  0  0  0  0  0
    3.6148    3.2457    1.0194 N   0  0  0  0  0  0  0  0  0  0  0  0
    2.6497    3.4964    0.1883 C   0  0  0  0  0  0  0  0  0  0  0  0
    1.7868    4.6896    0.4162 C   0  0  0  0  0  0  0  0  0  0  0  0
    1.2496    5.3680   -0.6694 C   0  0  0  0  0  0  0  0  0  0  0  0
    0.4220    6.4702   -0.4664 C   0  0  0  0  0  0  0  0  0  0  0  0
    0.1111    6.9248    0.8187 C   0  0  0  0  0  0  0  0  0  0  0  0
   -0.7373    8.0348    1.0488 N   0  0  0  0  0  0  0  0  0  0  0  0
   -1.4647    8.6951    0.0718 C   0  0  0  0  0  0  0  0  0  0  0  0
   -1.5353    8.3537   -1.1038 O   0  0  0  0  0  0  0  0  0  0  0  0
   -2.0891    9.8384    0.5554 N   0  0  0  0  0  0  0  0  0  0  0  0
   -2.8467   10.6333   -0.3410 C   0  0  0  0  0  0  0  0  0  0  0  0
   -3.7788   10.0521   -1.2093 C   0  0  0  0  0  0  0  0  0  0  0  0
   -4.4294   10.8230   -2.1739 C   0  0  0  0  0  0  0  0  0  0  0  0
   -4.1537   12.1908   -2.2872 C   0  0  0  0  0  0  0  0  0  0  0  0
   -4.8092   13.0278   -3.3582 C   0  0  0  0  0  0  0  0  0  0  0  0
   -5.6989   12.3398   -4.1285 F   0  0  0  0  0  0  0  0  0  0  0  0
   -5.5059   14.0773   -2.8404 F   0  0  0  0  0  0  0  0  0  0  0  0
   -3.9080   13.5704   -4.2223 F   0  0  0  0  0  0  0  0  0  0  0  0
   -3.2386   12.7732   -1.3923 C   0  0  0  0  0  0  0  0  0  0  0  0
   -2.6066   12.0044   -0.4075 C   0  0  0  0  0  0  0  0  0  0  0  0
    0.6812    6.2631    1.9114 C   0  0  0  0  0  0  0  0  0  0  0  0
    1.5209    5.1507    1.7131 C   0  0  0  0  0  0  0  0  0  0  0  0
    2.3522    2.6112   -1.0107 C   0  0  0  0  0  0  0  0  0  0  0  0
    3.4420    2.7678   -2.0587 C   0  0  0  0  0  0  0  0  0  0  0  0
    4.8006    2.4558   -1.6279 N   0  0  0  0  0  0  0  0  0  0  0  0
    4.7418    0.9567    3.8087 H   0  0  0  0  0  0  0  0  0  0  0  0
    4.2302    2.5190    3.3194 H   0  0  0  0  0  0  0  0  0  0  0  0
    6.7837   -0.8379    0.4257 H   0  0  0  0  0  0  0  0  0  0  0  0
    1.4614    5.0792   -1.6932 H   0  0  0  0  0  0  0  0  0  0  0  0
    0.0425    6.9495   -1.3608 H   0  0  0  0  0  0  0  0  0  0  0  0
   -0.9403    8.2746    2.0094 H   0  0  0  0  0  0  0  0  0  0  0  0
   -1.5568   10.3356    1.2548 H   0  0  0  0  0  0  0  0  0  0  0  0
   -3.9861    8.9848   -1.1627 H   0  0  0  0  0  0  0  0  0  0  0  0
   -5.1303   10.3389   -2.8520 H   0  0  0  0  0  0  0  0  0  0  0  0
   -2.9933   13.8309   -1.4802 H   0  0  0  0  0  0  0  0  0  0  0  0
   -1.8737   12.4751    0.2416 H   0  0  0  0  0  0  0  0  0  0  0  0
    0.4856    6.5906    2.9295 H   0  0  0  0  0  0  0  0  0  0  0  0
    1.9546    4.6440    2.5701 H   0  0  0  0  0  0  0  0  0  0  0  0
    1.3795    2.8552   -1.4497 H   0  0  0  0  0  0  0  0  0  0  0  0
    2.2633    1.5709   -0.6754 H   0  0  0  0  0  0  0  0  0  0  0  0
    3.4500    3.7958   -2.4393 H   0  0  0  0  0  0  0  0  0  0  0  0
    3.1947    2.1265   -2.9135 H   0  0  0  0  0  0  0  0  0  0  0  0
    5.3355    1.9635   -2.3405 H   0  0  0  0  0  0  0  0  0  0  0  0
  1  2  1  0  0  0  0
  1 33  1  0  0  0  0
  1 34  1  0  0  0  0
  2  3  1  0  0  0  0
  2  7  2  0  0  0  0
  3  4  2  0  0  0  0
  4  5  1  0  0  0  0
  4 35  1  0  0  0  0
  5  6  2  0  0  0  0
  6  7  1  0  0  0  0
  6 32  1  0  0  0  0
  7  8  1  0  0  0  0
  8  9  2  0  0  0  0
  9 10  1  0  0  0  0
  9 30  1  0  0  0  0
 10 11  1  0  0  0  0
 10 29  2  0  0  0  0
 11 12  2  0  0  0  0
 11 36  1  0  0  0  0
 12 13  1  0  0  0  0
 12 37  1  0  0  0  0
 13 14  1  0  0  0  0
 13 28  2  0  0  0  0
 14 15  1  0  0  0  0
 14 38  1  0  0  0  0
 15 16  2  0  0  0  0
 15 17  1  0  0  0  0
 17 18  1  0  0  0  0
 17 39  1  0  0  0  0
 18 19  1  0  0  0  0
 18 27  2  0  0  0  0
 19 20  2  0  0  0  0
 19 40  1  0  0  0  0
 20 21  1  0  0  0  0
 20 41  1  0  0  0  0
 21 22  1  0  0  0  0
 21 26  2  0  0  0  0
 22 23  1  0  0  0  0
 22 24  1  0  0  0  0
 22 25  1  0  0  0  0
 26 27  1  0  0  0  0
 26 42  1  0  0  0  0
 27 43  1  0  0  0  0
 28 29  1  0  0  0  0
 28 44  1  0  0  0  0
 29 45  1  0  0  0  0
 30 31  1  0  0  0  0
 30 46  1  0  0  0  0
 30 47  1  0  0  0  0
 31 32  1  0  0  0  0
 31 48  1  0  0  0  0
 31 49  1  0  0  0  0
 32 50  1  0  0  0  0
M  END
$$$$
