CHEMBL214893
 OpenBabel04072215363D

 68 73  0  0  0  0  0  0  0  0999 V2000
    3.7644    5.0488   -1.2395 C   0  0  0  0  0  0  0  0  0  0  0  0
    2.5315    4.6408   -0.7006 C   0  0  0  0  0  0  0  0  0  0  0  0
    2.1664    3.2848   -0.6361 C   0  0  0  0  0  0  0  0  0  0  0  0
    0.9667    2.8565   -0.0296 N   0  0  0  0  0  0  0  0  0  0  0  0
   -0.2279    3.6068    0.0479 C   0  0  0  0  0  0  0  0  0  0  0  0
   -0.4852    4.4354   -0.9917 N   0  0  0  0  0  0  0  0  0  0  0  0
   -1.6412    5.0846   -0.9857 C   0  0  0  0  0  0  0  0  0  0  0  0
   -2.5819    4.9806   -0.0508 N   0  0  0  0  0  0  0  0  0  0  0  0
   -2.3207    4.1597    0.9657 C   0  0  0  0  0  0  0  0  0  0  0  0
   -3.3163    4.0622    1.9126 C   0  0  0  0  0  0  0  0  0  0  0  0
   -3.1969    3.2536    3.0400 C   0  0  0  0  0  0  0  0  0  0  0  0
   -4.1770    3.1027    3.9915 O   0  0  0  0  0  0  0  0  0  0  0  0
   -5.3913    3.8111    3.7141 C   0  0  0  0  0  0  0  0  0  0  0  0
   -6.4386    3.5315    4.7822 C   0  0  0  0  0  0  0  0  0  0  0  0
   -7.7305    4.2866    4.4344 C   0  0  0  0  0  0  0  0  0  0  0  0
   -8.8109    4.1153    5.4173 N   0  0  0  0  0  0  0  0  0  0  0  0
   -9.2835    2.7267    5.5313 C   0  0  0  0  0  0  0  0  0  0  0  0
  -10.3169    2.5772    4.4351 C   0  0  0  0  0  0  0  0  0  0  0  0
  -11.0458    3.9030    4.4981 C   0  0  0  0  0  0  0  0  0  0  0  0
  -10.0045    4.8947    5.0140 C   0  0  0  0  0  0  0  0  0  0  0  0
   -2.0164    2.5397    3.2408 C   0  0  0  0  0  0  0  0  0  0  0  0
   -0.9752    2.6337    2.3111 C   0  0  0  0  0  0  0  0  0  0  0  0
    0.2321    1.9922    2.4579 O   0  0  0  0  0  0  0  0  0  0  0  0
    0.7088    1.6240    3.7676 C   0  0  0  0  0  0  0  0  0  0  0  0
    1.1242    2.8586    4.5768 C   0  0  0  0  0  0  0  0  0  0  0  0
    1.9683    2.4850    5.7866 C   0  0  0  0  0  0  0  0  0  0  0  0
    3.0916    1.7007    5.3960 O   0  0  0  0  0  0  0  0  0  0  0  0
    2.6963    0.4608    4.8166 C   0  0  0  0  0  0  0  0  0  0  0  0
    1.9131    0.7012    3.5378 C   0  0  0  0  0  0  0  0  0  0  0  0
   -1.1366    3.4276    1.1212 C   0  0  0  0  0  0  0  0  0  0  0  0
    3.0989    2.3740   -1.1114 C   0  0  0  0  0  0  0  0  0  0  0  0
    4.3046    2.7775   -1.6472 C   0  0  0  0  0  0  0  0  0  0  0  0
    4.6660    4.1048   -1.7255 C   0  0  0  0  0  0  0  0  0  0  0  0
    5.0730    1.7323   -2.0572 O   0  0  0  0  0  0  0  0  0  0  0  0
    4.2484    0.6212   -1.6567 C   0  0  0  0  0  0  0  0  0  0  0  0
    2.9694    1.0150   -1.1228 O   0  0  0  0  0  0  0  0  0  0  0  0
    4.0114    6.1069   -1.2662 H   0  0  0  0  0  0  0  0  0  0  0  0
    1.8579    5.4039   -0.3179 H   0  0  0  0  0  0  0  0  0  0  0  0
    1.1575    2.3698    0.8437 H   0  0  0  0  0  0  0  0  0  0  0  0
   -1.8407    5.7586   -1.8140 H   0  0  0  0  0  0  0  0  0  0  0  0
   -4.2094    4.6487    1.7232 H   0  0  0  0  0  0  0  0  0  0  0  0
   -5.7948    3.4811    2.7475 H   0  0  0  0  0  0  0  0  0  0  0  0
   -5.1900    4.8892    3.6931 H   0  0  0  0  0  0  0  0  0  0  0  0
   -6.0614    3.8346    5.7657 H   0  0  0  0  0  0  0  0  0  0  0  0
   -6.5950    2.4495    4.8275 H   0  0  0  0  0  0  0  0  0  0  0  0
   -8.0630    4.0044    3.4268 H   0  0  0  0  0  0  0  0  0  0  0  0
   -7.4811    5.3562    4.3894 H   0  0  0  0  0  0  0  0  0  0  0  0
   -9.7607    2.6067    6.5121 H   0  0  0  0  0  0  0  0  0  0  0  0
   -8.5037    1.9648    5.4734 H   0  0  0  0  0  0  0  0  0  0  0  0
  -10.9823    1.7254    4.5989 H   0  0  0  0  0  0  0  0  0  0  0  0
   -9.8360    2.4518    3.4575 H   0  0  0  0  0  0  0  0  0  0  0  0
  -11.8775    3.8340    5.2096 H   0  0  0  0  0  0  0  0  0  0  0  0
  -11.4535    4.1886    3.5239 H   0  0  0  0  0  0  0  0  0  0  0  0
  -10.4006    5.4259    5.8870 H   0  0  0  0  0  0  0  0  0  0  0  0
   -9.7849    5.6576    4.2568 H   0  0  0  0  0  0  0  0  0  0  0  0
   -1.9418    1.9234    4.1296 H   0  0  0  0  0  0  0  0  0  0  0  0
   -0.0445    1.0411    4.3096 H   0  0  0  0  0  0  0  0  0  0  0  0
    0.2416    3.4176    4.9068 H   0  0  0  0  0  0  0  0  0  0  0  0
    1.6941    3.5359    3.9287 H   0  0  0  0  0  0  0  0  0  0  0  0
    1.3837    1.9359    6.5339 H   0  0  0  0  0  0  0  0  0  0  0  0
    2.3486    3.3911    6.2701 H   0  0  0  0  0  0  0  0  0  0  0  0
    2.1157   -0.1156    5.5461 H   0  0  0  0  0  0  0  0  0  0  0  0
    3.6051   -0.1089    4.5960 H   0  0  0  0  0  0  0  0  0  0  0  0
    1.5762   -0.2527    3.1149 H   0  0  0  0  0  0  0  0  0  0  0  0
    2.5732    1.1533    2.7863 H   0  0  0  0  0  0  0  0  0  0  0  0
    5.6228    4.4026   -2.1391 H   0  0  0  0  0  0  0  0  0  0  0  0
    4.7832    0.0568   -0.8840 H   0  0  0  0  0  0  0  0  0  0  0  0
    4.0931   -0.0328   -2.5224 H   0  0  0  0  0  0  0  0  0  0  0  0
  1  2  1  0  0  0  0
  1 33  2  0  0  0  0
  1 37  1  0  0  0  0
  2  3  2  0  0  0  0
  2 38  1  0  0  0  0
  3  4  1  0  0  0  0
  3 31  1  0  0  0  0
  4  5  1  0  0  0  0
  4 39  1  0  0  0  0
  5  6  1  0  0  0  0
  5 30  2  0  0  0  0
  6  7  2  0  0  0  0
  7  8  1  0  0  0  0
  7 40  1  0  0  0  0
  8  9  2  0  0  0  0
  9 10  1  0  0  0  0
  9 30  1  0  0  0  0
 10 11  2  0  0  0  0
 10 41  1  0  0  0  0
 11 12  1  0  0  0  0
 11 21  1  0  0  0  0
 12 13  1  0  0  0  0
 13 14  1  0  0  0  0
 13 42  1  0  0  0  0
 13 43  1  0  0  0  0
 14 15  1  0  0  0  0
 14 44  1  0  0  0  0
 14 45  1  0  0  0  0
 15 16  1  0  0  0  0
 15 46  1  0  0  0  0
 15 47  1  0  0  0  0
 16 17  1  0  0  0  0
 16 20  1  0  0  0  0
 17 18  1  0  0  0  0
 17 48  1  0  0  0  0
 17 49  1  0  0  0  0
 18 19  1  0  0  0  0
 18 50  1  0  0  0  0
 18 51  1  0  0  0  0
 19 20  1  0  0  0  0
 19 52  1  0  0  0  0
 19 53  1  0  0  0  0
 20 54  1  0  0  0  0
 20 55  1  0  0  0  0
 21 22  2  0  0  0  0
 21 56  1  0  0  0  0
 22 23  1  0  0  0  0
 22 30  1  0  0  0  0
 23 24  1  0  0  0  0
 24 25  1  0  0  0  0
 24 29  1  0  0  0  0
 24 57  1  0  0  0  0
 25 26  1  0  0  0  0
 25 58  1  0  0  0  0
 25 59  1  0  0  0  0
 26 27  1  0  0  0  0
 26 60  1  0  0  0  0
 26 61  1  0  0  0  0
 27 28  1  0  0  0  0
 28 29  1  0  0  0  0
 28 62  1  0  0  0  0
 28 63  1  0  0  0  0
 29 64  1  0  0  0  0
 29 65  1  0  0  0  0
 31 32  2  0  0  0  0
 31 36  1  0  0  0  0
 32 33  1  0  0  0  0
 32 34  1  0  0  0  0
 33 66  1  0  0  0  0
 34 35  1  0  0  0  0
 35 36  1  0  0  0  0
 35 67  1  0  0  0  0
 35 68  1  0  0  0  0
M  END
$$$$
