CHEMBL71722
 OpenBabel04072215383D

 47 50  0  0  0  0  0  0  0  0999 V2000
    0.9746    0.4066   -0.1584 C   0  0  0  0  0  0  0  0  0  0  0  0
    2.4320   -0.0354   -0.0025 C   0  0  0  0  0  0  0  0  0  0  0  0
    3.3231    0.6515   -1.0410 C   0  0  0  0  0  0  0  0  0  0  0  0
    2.9158    0.2089    1.3559 N   0  0  0  0  0  0  0  0  0  0  0  0
    3.0359    1.4525    1.9209 C   0  0  0  0  0  0  0  0  0  0  0  0
    3.5415    1.3124    3.2004 C   0  0  0  0  0  0  0  0  0  0  0  0
    3.8202    2.4705    4.0383 C   0  0  0  0  0  0  0  0  0  0  0  0
    3.0303    3.6247    3.9472 C   0  0  0  0  0  0  0  0  0  0  0  0
    3.2885    4.7297    4.7583 C   0  0  0  0  0  0  0  0  0  0  0  0
    4.2728    4.6565    5.7450 C   0  0  0  0  0  0  0  0  0  0  0  0
    4.5392    5.6408    6.6679 O   0  0  0  0  0  0  0  0  0  0  0  0
    3.5418    6.5111    7.0487 C   0  0  0  0  0  0  0  0  0  0  0  0
    2.2070    6.1137    7.2184 C   0  0  0  0  0  0  0  0  0  0  0  0
    1.2271    7.0538    7.5342 C   0  0  0  0  0  0  0  0  0  0  0  0
    1.5840    8.3816    7.7546 C   0  0  0  0  0  0  0  0  0  0  0  0
    2.9244    8.7670    7.6730 C   0  0  0  0  0  0  0  0  0  0  0  0
    3.9109    7.8365    7.3197 C   0  0  0  0  0  0  0  0  0  0  0  0
    5.2818    8.2592    7.2458 C   0  0  0  0  0  0  0  0  0  0  0  0
    6.3831    8.6232    7.2016 N   0  0  0  0  0  0  0  0  0  0  0  0
    5.0985    3.5367    5.8062 C   0  0  0  0  0  0  0  0  0  0  0  0
    4.8948    2.4679    4.9324 C   0  0  0  0  0  0  0  0  0  0  0  0
    3.7088   -0.0964    3.4320 C   0  0  0  0  0  0  0  0  0  0  0  0
    4.1387   -0.9327    4.4826 C   0  0  0  0  0  0  0  0  0  0  0  0
    4.5017   -0.4965    5.7508 N   0  0  0  0  0  0  0  0  0  0  0  0
    4.1972   -2.2640    4.2815 N   0  0  0  0  0  0  0  0  0  0  0  0
    3.8257   -2.7455    3.0845 C   0  0  0  0  0  0  0  0  0  0  0  0
    3.3665   -2.0658    2.0228 N   0  0  0  0  0  0  0  0  0  0  0  0
    3.3319   -0.7418    2.2531 C   0  0  0  0  0  0  0  0  0  0  0  0
    0.6084    0.1906   -1.1675 H   0  0  0  0  0  0  0  0  0  0  0  0
    0.8554    1.4824    0.0147 H   0  0  0  0  0  0  0  0  0  0  0  0
    0.3293   -0.1159    0.5563 H   0  0  0  0  0  0  0  0  0  0  0  0
    2.4803   -1.1163   -0.1764 H   0  0  0  0  0  0  0  0  0  0  0  0
    3.3073    1.7420   -0.9323 H   0  0  0  0  0  0  0  0  0  0  0  0
    2.9889    0.4157   -2.0566 H   0  0  0  0  0  0  0  0  0  0  0  0
    4.3637    0.3247   -0.9400 H   0  0  0  0  0  0  0  0  0  0  0  0
    2.7722    2.3387    1.3579 H   0  0  0  0  0  0  0  0  0  0  0  0
    2.2011    3.6820    3.2461 H   0  0  0  0  0  0  0  0  0  0  0  0
    2.6870    5.6233    4.6212 H   0  0  0  0  0  0  0  0  0  0  0  0
    1.9113    5.0757    7.0802 H   0  0  0  0  0  0  0  0  0  0  0  0
    0.1861    6.7472    7.6064 H   0  0  0  0  0  0  0  0  0  0  0  0
    0.8198    9.1145    8.0043 H   0  0  0  0  0  0  0  0  0  0  0  0
    3.1947    9.8012    7.8808 H   0  0  0  0  0  0  0  0  0  0  0  0
    5.9060    3.4906    6.5324 H   0  0  0  0  0  0  0  0  0  0  0  0
    5.5890    1.6318    4.9679 H   0  0  0  0  0  0  0  0  0  0  0  0
    3.9723    0.3036    6.0740 H   0  0  0  0  0  0  0  0  0  0  0  0
    4.5522   -1.2785    6.3932 H   0  0  0  0  0  0  0  0  0  0  0  0
    3.8997   -3.8226    2.9665 H   0  0  0  0  0  0  0  0  0  0  0  0
  1  2  1  0  0  0  0
  1 29  1  0  0  0  0
  1 30  1  0  0  0  0
  1 31  1  0  0  0  0
  2  3  1  0  0  0  0
  2  4  1  0  0  0  0
  2 32  1  0  0  0  0
  3 33  1  0  0  0  0
  3 34  1  0  0  0  0
  3 35  1  0  0  0  0
  4  5  1  0  0  0  0
  4 28  1  0  0  0  0
  5  6  2  0  0  0  0
  5 36  1  0  0  0  0
  6  7  1  0  0  0  0
  6 22  1  0  0  0  0
  7  8  1  0  0  0  0
  7 21  2  0  0  0  0
  8  9  2  0  0  0  0
  8 37  1  0  0  0  0
  9 10  1  0  0  0  0
  9 38  1  0  0  0  0
 10 11  1  0  0  0  0
 10 20  2  0  0  0  0
 11 12  1  0  0  0  0
 12 13  1  0  0  0  0
 12 17  2  0  0  0  0
 13 14  2  0  0  0  0
 13 39  1  0  0  0  0
 14 15  1  0  0  0  0
 14 40  1  0  0  0  0
 15 16  2  0  0  0  0
 15 41  1  0  0  0  0
 16 17  1  0  0  0  0
 16 42  1  0  0  0  0
 17 18  1  0  0  0  0
 18 19  3  0  0  0  0
 20 21  1  0  0  0  0
 20 43  1  0  0  0  0
 21 44  1  0  0  0  0
 22 23  1  0  0  0  0
 22 28  2  0  0  0  0
 23 24  1  0  0  0  0
 23 25  2  0  0  0  0
 24 45  1  0  0  0  0
 24 46  1  0  0  0  0
 25 26  1  0  0  0  0
 26 27  2  0  0  0  0
 26 47  1  0  0  0  0
 27 28  1  0  0  0  0
M  END
$$$$
