CHEMBL3909951
 OpenBabel04072215373D

 53 57  0  0  0  0  0  0  0  0999 V2000
    0.5497    0.4651   -0.7644 C   0  0  0  0  0  0  0  0  0  0  0  0
    1.9224    0.1177   -0.9245 O   0  0  0  0  0  0  0  0  0  0  0  0
    2.7724    1.1549   -1.2495 C   0  0  0  0  0  0  0  0  0  0  0  0
    2.5260    2.4874   -0.9395 C   0  0  0  0  0  0  0  0  0  0  0  0
    3.4336    3.4608   -1.3495 C   0  0  0  0  0  0  0  0  0  0  0  0
    3.3192    4.7988   -1.0755 O   0  0  0  0  0  0  0  0  0  0  0  0
    2.3294    5.1752   -0.1222 C   0  0  0  0  0  0  0  0  0  0  0  0
    4.5755    3.1022   -2.0834 C   0  0  0  0  0  0  0  0  0  0  0  0
    4.9047    1.7653   -2.3420 C   0  0  0  0  0  0  0  0  0  0  0  0
    6.0791    1.4128   -3.0551 N   0  0  0  0  0  0  0  0  0  0  0  0
    6.5749   -0.0018   -2.9312 C   0  0  0  0  0  0  0  0  0  0  0  0
    6.0012   -0.9687   -3.9573 C   0  0  0  0  0  0  0  0  0  0  0  0
    6.4522   -2.4179   -3.9040 C   0  0  0  0  0  0  0  0  0  0  0  0
    6.8342   -1.5690   -5.0762 C   0  0  0  0  0  0  0  0  0  0  0  0
    7.1201    2.2313   -3.6133 C   0  0  0  0  0  0  0  0  0  0  0  0
    7.5574    1.8515   -4.8799 C   0  0  0  0  0  0  0  0  0  0  0  0
    8.8486    2.1368   -5.2718 C   0  0  0  0  0  0  0  0  0  0  0  0
    9.6688    2.9181   -4.5011 C   0  0  0  0  0  0  0  0  0  0  0  0
   10.9490    2.9245   -4.8776 N   0  0  0  0  0  0  0  0  0  0  0  0
   11.7417    3.8113   -4.2667 C   0  0  0  0  0  0  0  0  0  0  0  0
   11.2531    4.7580   -3.3868 C   0  0  0  0  0  0  0  0  0  0  0  0
   12.0825    5.9497   -3.2299 C   0  0  0  0  0  0  0  0  0  0  0  0
   11.9692    7.1951   -3.9046 C   0  0  0  0  0  0  0  0  0  0  0  0
   13.0804    7.9373   -3.8284 N   0  0  0  0  0  0  0  0  0  0  0  0
   13.9316    7.1631   -3.1398 N   0  0  0  0  0  0  0  0  0  0  0  0
   13.4083    5.9379   -2.8269 C   0  0  0  0  0  0  0  0  0  0  0  0
    9.9730    4.6713   -2.8970 N   0  0  0  0  0  0  0  0  0  0  0  0
    9.1637    3.6537   -3.4216 C   0  0  0  0  0  0  0  0  0  0  0  0
    7.8796    3.2257   -2.9374 C   0  0  0  0  0  0  0  0  0  0  0  0
    3.9600    0.8063   -1.9084 C   0  0  0  0  0  0  0  0  0  0  0  0
   -0.0161   -0.4560   -0.5977 H   0  0  0  0  0  0  0  0  0  0  0  0
    0.1562    0.9421   -1.6690 H   0  0  0  0  0  0  0  0  0  0  0  0
    0.3900    1.1010    0.1124 H   0  0  0  0  0  0  0  0  0  0  0  0
    1.6428    2.7633   -0.3830 H   0  0  0  0  0  0  0  0  0  0  0  0
    2.4936    6.2245    0.1396 H   0  0  0  0  0  0  0  0  0  0  0  0
    2.4077    4.5918    0.8027 H   0  0  0  0  0  0  0  0  0  0  0  0
    1.3281    5.0885   -0.5567 H   0  0  0  0  0  0  0  0  0  0  0  0
    5.2148    3.9032   -2.4384 H   0  0  0  0  0  0  0  0  0  0  0  0
    6.3767   -0.3817   -1.9226 H   0  0  0  0  0  0  0  0  0  0  0  0
    7.6716   -0.0367   -3.0109 H   0  0  0  0  0  0  0  0  0  0  0  0
    4.9506   -0.7964   -4.1621 H   0  0  0  0  0  0  0  0  0  0  0  0
    5.7215   -3.2024   -4.0722 H   0  0  0  0  0  0  0  0  0  0  0  0
    7.2464   -2.7040   -3.2216 H   0  0  0  0  0  0  0  0  0  0  0  0
    6.3502   -1.7925   -6.0222 H   0  0  0  0  0  0  0  0  0  0  0  0
    7.8781   -1.2952   -5.1759 H   0  0  0  0  0  0  0  0  0  0  0  0
    6.9432    1.2067   -5.5035 H   0  0  0  0  0  0  0  0  0  0  0  0
    9.2400    1.6851   -6.1791 H   0  0  0  0  0  0  0  0  0  0  0  0
   12.7789    3.7939   -4.5810 H   0  0  0  0  0  0  0  0  0  0  0  0
   11.1508    7.5625   -4.5116 H   0  0  0  0  0  0  0  0  0  0  0  0
   14.8762    7.5061   -2.9850 H   0  0  0  0  0  0  0  0  0  0  0  0
   14.0370    5.1684   -2.4021 H   0  0  0  0  0  0  0  0  0  0  0  0
    7.5323    3.6249   -1.9848 H   0  0  0  0  0  0  0  0  0  0  0  0
    4.1026   -0.2527   -2.1021 H   0  0  0  0  0  0  0  0  0  0  0  0
  1  2  1  0  0  0  0
  1 31  1  0  0  0  0
  1 32  1  0  0  0  0
  1 33  1  0  0  0  0
  2  3  1  0  0  0  0
  3  4  1  0  0  0  0
  3 30  2  0  0  0  0
  4  5  2  0  0  0  0
  4 34  1  0  0  0  0
  5  6  1  0  0  0  0
  5  8  1  0  0  0  0
  6  7  1  0  0  0  0
  7 35  1  0  0  0  0
  7 36  1  0  0  0  0
  7 37  1  0  0  0  0
  8  9  2  0  0  0  0
  8 38  1  0  0  0  0
  9 10  1  0  0  0  0
  9 30  1  0  0  0  0
 10 11  1  0  0  0  0
 10 15  1  0  0  0  0
 11 12  1  0  0  0  0
 11 39  1  0  0  0  0
 11 40  1  0  0  0  0
 12 13  1  0  0  0  0
 12 14  1  0  0  0  0
 12 41  1  0  0  0  0
 13 14  1  0  0  0  0
 13 42  1  0  0  0  0
 13 43  1  0  0  0  0
 14 44  1  0  0  0  0
 14 45  1  0  0  0  0
 15 16  1  0  0  0  0
 15 29  2  0  0  0  0
 16 17  2  0  0  0  0
 16 46  1  0  0  0  0
 17 18  1  0  0  0  0
 17 47  1  0  0  0  0
 18 19  1  0  0  0  0
 18 28  2  0  0  0  0
 19 20  2  0  0  0  0
 20 21  1  0  0  0  0
 20 48  1  0  0  0  0
 21 22  1  0  0  0  0
 21 27  2  0  0  0  0
 22 23  1  0  0  0  0
 22 26  2  0  0  0  0
 23 24  2  0  0  0  0
 23 49  1  0  0  0  0
 24 25  1  0  0  0  0
 25 26  1  0  0  0  0
 25 50  1  0  0  0  0
 26 51  1  0  0  0  0
 27 28  1  0  0  0  0
 28 29  1  0  0  0  0
 29 52  1  0  0  0  0
 30 53  1  0  0  0  0
M  END
$$$$
