CHEMBL2409790
 OpenBabel04072215363D

 53 57  0  0  0  0  0  0  0  0999 V2000
   -2.2933    0.5698   -0.9240 C   0  0  0  0  0  0  0  0  0  0  0  0
   -1.0055   -0.0355   -0.5063 C   0  0  0  0  0  0  0  0  0  0  0  0
   -0.5852   -1.3873   -0.5402 C   0  0  0  0  0  0  0  0  0  0  0  0
    0.7158   -1.3997   -0.0555 C   0  0  0  0  0  0  0  0  0  0  0  0
    1.6733   -2.4786    0.1313 C   0  0  0  0  0  0  0  0  0  0  0  0
    2.8065   -2.2289    0.5342 O   0  0  0  0  0  0  0  0  0  0  0  0
    1.2747   -3.7760   -0.2077 N   0  0  0  0  0  0  0  0  0  0  0  0
    2.0998   -4.9322   -0.0312 C   0  0  0  0  0  0  0  0  0  0  0  0
    3.2080   -4.9162    0.8276 C   0  0  0  0  0  0  0  0  0  0  0  0
    4.1137   -5.9729    0.8729 C   0  0  0  0  0  0  0  0  0  0  0  0
    3.8970   -7.1034    0.0978 C   0  0  0  0  0  0  0  0  0  0  0  0
    2.7144   -7.2213   -0.6301 C   0  0  0  0  0  0  0  0  0  0  0  0
    2.4037   -8.3684   -1.3399 O   0  0  0  0  0  0  0  0  0  0  0  0
    2.7741   -9.6141   -0.8469 C   0  0  0  0  0  0  0  0  0  0  0  0
    3.0274  -10.6044   -1.7975 C   0  0  0  0  0  0  0  0  0  0  0  0
    3.3364  -11.9201   -1.4081 C   0  0  0  0  0  0  0  0  0  0  0  0
    3.4264  -12.2495   -0.0390 C   0  0  0  0  0  0  0  0  0  0  0  0
    3.7154  -13.5016    0.4962 N   0  0  0  0  0  0  0  0  0  0  0  0
    3.8578  -13.4009    1.7972 C   0  0  0  0  0  0  0  0  0  0  0  0
    4.2143  -14.4728    2.5886 N   0  0  0  0  0  0  0  0  0  0  0  0
    4.8985  -14.3525    3.7765 C   0  0  0  0  0  0  0  0  0  0  0  0
    5.2693  -13.3053    4.2990 O   0  0  0  0  0  0  0  0  0  0  0  0
    5.2978  -15.6170    4.4676 C   0  0  0  0  0  0  0  0  0  0  0  0
    6.1191  -16.6721    3.7586 C   0  0  0  0  0  0  0  0  0  0  0  0
    4.7238  -16.9879    4.2180 C   0  0  0  0  0  0  0  0  0  0  0  0
    3.4660  -11.8816    2.4707 S   0  0  0  0  0  0  0  0  0  0  0  0
    3.2029  -11.2385    0.8962 C   0  0  0  0  0  0  0  0  0  0  0  0
    2.8325   -9.9314    0.5186 C   0  0  0  0  0  0  0  0  0  0  0  0
    1.8302   -6.1233   -0.7258 C   0  0  0  0  0  0  0  0  0  0  0  0
    0.9717   -0.0738    0.2588 N   0  0  0  0  0  0  0  0  0  0  0  0
    2.1432    0.5521    0.8314 C   0  0  0  0  0  0  0  0  0  0  0  0
   -0.0528    0.7556   -0.0189 N   0  0  0  0  0  0  0  0  0  0  0  0
   -2.9885   -0.1846   -1.3006 H   0  0  0  0  0  0  0  0  0  0  0  0
   -2.1275    1.3087   -1.7169 H   0  0  0  0  0  0  0  0  0  0  0  0
   -2.7682    1.0834   -0.0800 H   0  0  0  0  0  0  0  0  0  0  0  0
   -1.1698   -2.2261   -0.8863 H   0  0  0  0  0  0  0  0  0  0  0  0
    0.4254   -3.8876   -0.7447 H   0  0  0  0  0  0  0  0  0  0  0  0
    3.4095   -4.0777    1.4867 H   0  0  0  0  0  0  0  0  0  0  0  0
    4.9924   -5.9025    1.5108 H   0  0  0  0  0  0  0  0  0  0  0  0
    4.6388   -7.8948    0.1136 H   0  0  0  0  0  0  0  0  0  0  0  0
    2.9835  -10.3630   -2.8574 H   0  0  0  0  0  0  0  0  0  0  0  0
    3.5198  -12.6878   -2.1539 H   0  0  0  0  0  0  0  0  0  0  0  0
    4.2085  -15.3623    2.1128 H   0  0  0  0  0  0  0  0  0  0  0  0
    5.5802  -15.4246    5.5008 H   0  0  0  0  0  0  0  0  0  0  0  0
    6.9525  -17.1004    4.3081 H   0  0  0  0  0  0  0  0  0  0  0  0
    6.2983  -16.5889    2.6939 H   0  0  0  0  0  0  0  0  0  0  0  0
    4.6175  -17.6421    5.0802 H   0  0  0  0  0  0  0  0  0  0  0  0
    3.9557  -17.1366    3.4721 H   0  0  0  0  0  0  0  0  0  0  0  0
    2.6248   -9.1916    1.2847 H   0  0  0  0  0  0  0  0  0  0  0  0
    0.9584   -6.2073   -1.3693 H   0  0  0  0  0  0  0  0  0  0  0  0
    2.9310   -0.1522    1.0743 H   0  0  0  0  0  0  0  0  0  0  0  0
    1.8388    1.0610    1.7506 H   0  0  0  0  0  0  0  0  0  0  0  0
    2.5237    1.2806    0.1100 H   0  0  0  0  0  0  0  0  0  0  0  0
  1  2  1  0  0  0  0
  1 33  1  0  0  0  0
  1 34  1  0  0  0  0
  1 35  1  0  0  0  0
  2  3  1  0  0  0  0
  2 32  2  0  0  0  0
  3  4  2  0  0  0  0
  3 36  1  0  0  0  0
  4  5  1  0  0  0  0
  4 30  1  0  0  0  0
  5  6  2  0  0  0  0
  5  7  1  0  0  0  0
  7  8  1  0  0  0  0
  7 37  1  0  0  0  0
  8  9  1  0  0  0  0
  8 29  2  0  0  0  0
  9 10  2  0  0  0  0
  9 38  1  0  0  0  0
 10 11  1  0  0  0  0
 10 39  1  0  0  0  0
 11 12  2  0  0  0  0
 11 40  1  0  0  0  0
 12 13  1  0  0  0  0
 12 29  1  0  0  0  0
 13 14  1  0  0  0  0
 14 15  1  0  0  0  0
 14 28  2  0  0  0  0
 15 16  2  0  0  0  0
 15 41  1  0  0  0  0
 16 17  1  0  0  0  0
 16 42  1  0  0  0  0
 17 18  1  0  0  0  0
 17 27  2  0  0  0  0
 18 19  2  0  0  0  0
 19 20  1  0  0  0  0
 19 26  1  0  0  0  0
 20 21  1  0  0  0  0
 20 43  1  0  0  0  0
 21 22  2  0  0  0  0
 21 23  1  0  0  0  0
 23 24  1  0  0  0  0
 23 25  1  0  0  0  0
 23 44  1  0  0  0  0
 24 25  1  0  0  0  0
 24 45  1  0  0  0  0
 24 46  1  0  0  0  0
 25 47  1  0  0  0  0
 25 48  1  0  0  0  0
 26 27  1  0  0  0  0
 27 28  1  0  0  0  0
 28 49  1  0  0  0  0
 29 50  1  0  0  0  0
 30 31  1  0  0  0  0
 30 32  1  0  0  0  0
 31 51  1  0  0  0  0
 31 52  1  0  0  0  0
 31 53  1  0  0  0  0
M  END
$$$$
