CHEMBL3690456
 OpenBabel04072215373D

 48 51  0  0  0  0  0  0  0  0999 V2000
    2.4516    0.2316   -0.0256 C   0  0  0  0  0  0  0  0  0  0  0  0
    0.9664    0.0604   -0.0136 C   0  0  0  0  0  0  0  0  0  0  0  0
    0.1172    1.0080   -0.5706 C   0  0  0  0  0  0  0  0  0  0  0  0
   -1.2339    0.8867   -0.5649 N   0  0  0  0  0  0  0  0  0  0  0  0
   -1.7360   -0.2248    0.0326 C   0  0  0  0  0  0  0  0  0  0  0  0
   -3.2179   -0.3544    0.0411 C   0  0  0  0  0  0  0  0  0  0  0  0
   -4.0466    0.2638   -1.0034 C   0  0  0  0  0  0  0  0  0  0  0  0
   -5.3847    0.1547   -0.9663 C   0  0  0  0  0  0  0  0  0  0  0  0
   -5.9982   -0.5794    0.0530 N   0  0  0  0  0  0  0  0  0  0  0  0
   -7.3347   -0.9206    0.2804 C   0  0  0  0  0  0  0  0  0  0  0  0
   -8.4880   -0.6611   -0.6003 C   0  0  0  0  0  0  0  0  0  0  0  0
   -8.3325   -0.6589   -1.9918 C   0  0  0  0  0  0  0  0  0  0  0  0
   -9.4061   -0.3950   -2.8322 C   0  0  0  0  0  0  0  0  0  0  0  0
  -10.6756   -0.2104   -2.2988 C   0  0  0  0  0  0  0  0  0  0  0  0
  -10.8990   -0.2968   -0.9236 C   0  0  0  0  0  0  0  0  0  0  0  0
  -12.1987   -0.2105   -0.3575 N   0  0  0  0  0  0  0  0  0  0  0  0
  -13.3807   -0.1299   -1.0595 C   0  0  0  0  0  0  0  0  0  0  0  0
  -13.5197   -0.1230   -2.2778 O   0  0  0  0  0  0  0  0  0  0  0  0
  -14.4855   -0.0054   -0.2462 N   0  0  0  0  0  0  0  0  0  0  0  0
  -15.8050    0.0824   -0.8899 C   0  0  0  0  0  0  0  0  0  0  0  0
  -16.4090   -1.2373   -1.3985 C   0  0  0  0  0  0  0  0  0  0  0  0
  -15.6960   -2.3132   -0.9906 F   0  0  0  0  0  0  0  0  0  0  0  0
  -17.6630   -1.3897   -0.8997 F   0  0  0  0  0  0  0  0  0  0  0  0
  -16.5076   -1.2793   -2.7416 F   0  0  0  0  0  0  0  0  0  0  0  0
   -9.7888   -0.4900   -0.0757 C   0  0  0  0  0  0  0  0  0  0  0  0
   -7.2958   -1.6057    1.4867 C   0  0  0  0  0  0  0  0  0  0  0  0
   -6.0245   -1.7358    1.9750 N   0  0  0  0  0  0  0  0  0  0  0  0
   -5.2573   -1.1394    1.0917 C   0  0  0  0  0  0  0  0  0  0  0  0
   -3.8381   -0.9983    1.0595 C   0  0  0  0  0  0  0  0  0  0  0  0
   -0.8758   -1.1821    0.5680 C   0  0  0  0  0  0  0  0  0  0  0  0
    0.4766   -1.0616    0.5632 N   0  0  0  0  0  0  0  0  0  0  0  0
    2.7488    1.1717   -0.5003 H   0  0  0  0  0  0  0  0  0  0  0  0
    2.9161   -0.5925   -0.5759 H   0  0  0  0  0  0  0  0  0  0  0  0
    2.8332    0.2317    1.0003 H   0  0  0  0  0  0  0  0  0  0  0  0
    0.4982    1.9074   -1.0431 H   0  0  0  0  0  0  0  0  0  0  0  0
   -3.5506    0.8184   -1.7962 H   0  0  0  0  0  0  0  0  0  0  0  0
   -6.0076    0.6294   -1.7108 H   0  0  0  0  0  0  0  0  0  0  0  0
   -7.3778   -0.8845   -2.4571 H   0  0  0  0  0  0  0  0  0  0  0  0
   -9.2630   -0.3556   -3.9092 H   0  0  0  0  0  0  0  0  0  0  0  0
  -11.4754   -0.0127   -3.0044 H   0  0  0  0  0  0  0  0  0  0  0  0
  -12.2608   -0.2456    0.6499 H   0  0  0  0  0  0  0  0  0  0  0  0
  -14.4432   -0.4658    0.6519 H   0  0  0  0  0  0  0  0  0  0  0  0
  -15.7355    0.7844   -1.7315 H   0  0  0  0  0  0  0  0  0  0  0  0
  -16.4768    0.5355   -0.1540 H   0  0  0  0  0  0  0  0  0  0  0  0
   -9.9395   -0.5235    1.0011 H   0  0  0  0  0  0  0  0  0  0  0  0
   -8.1294   -2.0495    2.0159 H   0  0  0  0  0  0  0  0  0  0  0  0
   -3.3016   -1.4319    1.8957 H   0  0  0  0  0  0  0  0  0  0  0  0
   -1.2409   -2.0990    1.0174 H   0  0  0  0  0  0  0  0  0  0  0  0
  1  2  1  0  0  0  0
  1 32  1  0  0  0  0
  1 33  1  0  0  0  0
  1 34  1  0  0  0  0
  2  3  1  0  0  0  0
  2 31  2  0  0  0  0
  3  4  2  0  0  0  0
  3 35  1  0  0  0  0
  4  5  1  0  0  0  0
  5  6  1  0  0  0  0
  5 30  2  0  0  0  0
  6  7  1  0  0  0  0
  6 29  2  0  0  0  0
  7  8  2  0  0  0  0
  7 36  1  0  0  0  0
  8  9  1  0  0  0  0
  8 37  1  0  0  0  0
  9 10  1  0  0  0  0
  9 28  1  0  0  0  0
 10 11  1  0  0  0  0
 10 26  2  0  0  0  0
 11 12  1  0  0  0  0
 11 25  2  0  0  0  0
 12 13  2  0  0  0  0
 12 38  1  0  0  0  0
 13 14  1  0  0  0  0
 13 39  1  0  0  0  0
 14 15  2  0  0  0  0
 14 40  1  0  0  0  0
 15 16  1  0  0  0  0
 15 25  1  0  0  0  0
 16 17  1  0  0  0  0
 16 41  1  0  0  0  0
 17 18  2  0  0  0  0
 17 19  1  0  0  0  0
 19 20  1  0  0  0  0
 19 42  1  0  0  0  0
 20 21  1  0  0  0  0
 20 43  1  0  0  0  0
 20 44  1  0  0  0  0
 21 22  1  0  0  0  0
 21 23  1  0  0  0  0
 21 24  1  0  0  0  0
 25 45  1  0  0  0  0
 26 27  1  0  0  0  0
 26 46  1  0  0  0  0
 27 28  2  0  0  0  0
 28 29  1  0  0  0  0
 29 47  1  0  0  0  0
 30 31  1  0  0  0  0
 30 48  1  0  0  0  0
M  END
$$$$
