CHEMBL3927549
 OpenBabel04072215373D

 52 56  0  0  1  0  0  0  0  0999 V2000
   -1.4277   -2.2338   -6.1515 C   0  0  0  0  0  0  0  0  0  0  0  0
   -2.1496   -2.0009   -4.9388 O   0  0  0  0  0  0  0  0  0  0  0  0
   -2.0503   -0.7383   -4.4177 C   0  0  0  0  0  0  0  0  0  0  0  0
   -1.8907    0.3982   -5.2132 C   0  0  0  0  0  0  0  0  0  0  0  0
   -1.6915    1.6703   -4.6289 C   0  0  0  0  0  0  0  0  0  0  0  0
   -1.4817    2.8630   -5.3352 C   0  0  0  0  0  0  0  0  0  0  0  0
   -1.5273    2.8466   -6.7557 N   0  0  0  0  0  0  0  0  0  0  0  0
   -0.9959    3.8794   -7.5528 C   0  0  0  0  0  0  0  0  0  0  0  0
    0.2992    4.3595   -7.3131 C   0  0  0  0  0  0  0  0  0  0  0  0
    0.8057    5.4427   -8.0278 C   0  0  0  0  0  0  0  0  0  0  0  0
    0.0217    6.0559   -9.0036 C   0  0  0  0  0  0  0  0  0  0  0  0
    0.6829    7.4277   -9.8169 Cl  0  0  0  0  0  0  0  0  0  0  0  0
   -1.2580    5.5602   -9.2797 C   0  0  0  0  0  0  0  0  0  0  0  0
   -2.2837    6.2668  -10.4785 Cl  0  0  0  0  0  0  0  0  0  0  0  0
   -1.7606    4.4681   -8.5628 C   0  0  0  0  0  0  0  0  0  0  0  0
   -1.2301    4.0314   -4.7106 N   0  0  0  0  0  0  0  0  0  0  0  0
   -1.2017    4.0142   -3.3807 C   0  0  0  0  0  0  0  0  0  0  0  0
   -1.4077    2.9483   -2.6097 N   0  0  0  0  0  0  0  0  0  0  0  0
   -1.6449    1.8009   -3.2429 C   0  0  0  0  0  0  0  0  0  0  0  0
   -1.8708    0.6763   -2.4697 C   0  0  0  0  0  0  0  0  0  0  0  0
   -2.1375   -0.5794   -3.0290 C   0  0  0  0  0  0  0  0  0  0  0  0
   -2.4899   -1.6713   -2.2608 O   0  0  0  0  0  0  0  0  0  0  0  0
   -3.0079   -1.3025   -0.9731 C   0  0  0  0  0  0  0  0  0  0  0  0
   -3.6742   -2.3985   -0.2184 C   0  0  0  0  0  0  0  0  0  0  0  0
   -3.9868   -3.6756   -0.6327 C   0  0  0  0  0  0  0  0  0  0  0  0
   -4.6723   -4.5604    0.6671 S   0  0  0  0  0  0  0  0  0  0  0  0
   -4.4250   -3.2098    1.7053 C   0  0  0  0  0  0  0  0  0  0  0  0
   -4.4616   -3.3118    3.2113 C   0  0  2  0  0  0  0  0  0  0  0  0
   -3.0196   -3.5561    3.6881 C   0  0  0  0  0  0  0  0  0  0  0  0
   -3.2321   -4.3942    5.2575 S   0  0  0  0  0  0  0  0  0  0  0  0
   -4.7035   -5.2196    4.6542 C   0  0  0  0  0  0  0  0  0  0  0  0
   -5.4122   -4.3165    3.7539 N   0  0  0  0  0  0  0  0  0  0  0  0
   -3.9941   -2.1228    1.1024 N   0  0  0  0  0  0  0  0  0  0  0  0
   -0.9329   -3.2068   -6.0761 H   0  0  0  0  0  0  0  0  0  0  0  0
   -0.6409   -1.4983   -6.3574 H   0  0  0  0  0  0  0  0  0  0  0  0
   -2.1312   -2.2669   -6.9892 H   0  0  0  0  0  0  0  0  0  0  0  0
   -1.8971    0.3074   -6.2953 H   0  0  0  0  0  0  0  0  0  0  0  0
   -2.4451    2.5335   -7.0567 H   0  0  0  0  0  0  0  0  0  0  0  0
    0.9114    3.9003   -6.5386 H   0  0  0  0  0  0  0  0  0  0  0  0
    1.8029    5.8100   -7.7988 H   0  0  0  0  0  0  0  0  0  0  0  0
   -2.7646    4.1079   -8.7687 H   0  0  0  0  0  0  0  0  0  0  0  0
   -0.9933    4.9537   -2.8786 H   0  0  0  0  0  0  0  0  0  0  0  0
   -1.8304    0.8311   -1.3949 H   0  0  0  0  0  0  0  0  0  0  0  0
   -3.7443   -0.4926   -1.0713 H   0  0  0  0  0  0  0  0  0  0  0  0
   -2.1697   -0.9692   -0.3463 H   0  0  0  0  0  0  0  0  0  0  0  0
   -3.8185   -4.1251   -1.6010 H   0  0  0  0  0  0  0  0  0  0  0  0
   -4.7834   -2.3316    3.5951 H   0  0  0  0  0  0  0  0  0  0  0  0
   -2.4611   -2.6211    3.7983 H   0  0  0  0  0  0  0  0  0  0  0  0
   -2.4618   -4.2124    3.0095 H   0  0  0  0  0  0  0  0  0  0  0  0
   -5.3389   -5.5243    5.4900 H   0  0  0  0  0  0  0  0  0  0  0  0
   -4.4106   -6.1215    4.1073 H   0  0  0  0  0  0  0  0  0  0  0  0
   -6.1017   -3.8066    4.3055 H   0  0  0  0  0  0  0  0  0  0  0  0
  1  2  1  0  0  0  0
  1 34  1  0  0  0  0
  1 35  1  0  0  0  0
  1 36  1  0  0  0  0
  2  3  1  0  0  0  0
  3  4  1  0  0  0  0
  3 21  2  0  0  0  0
  4  5  2  0  0  0  0
  4 37  1  0  0  0  0
  5  6  1  0  0  0  0
  5 19  1  0  0  0  0
  6  7  1  0  0  0  0
  6 16  2  0  0  0  0
  7  8  1  0  0  0  0
  7 38  1  0  0  0  0
  8  9  1  0  0  0  0
  8 15  2  0  0  0  0
  9 10  2  0  0  0  0
  9 39  1  0  0  0  0
 10 11  1  0  0  0  0
 10 40  1  0  0  0  0
 11 12  1  0  0  0  0
 11 13  2  0  0  0  0
 13 14  1  0  0  0  0
 13 15  1  0  0  0  0
 15 41  1  0  0  0  0
 16 17  1  0  0  0  0
 17 18  2  0  0  0  0
 17 42  1  0  0  0  0
 18 19  1  0  0  0  0
 19 20  2  0  0  0  0
 20 21  1  0  0  0  0
 20 43  1  0  0  0  0
 21 22  1  0  0  0  0
 22 23  1  0  0  0  0
 23 24  1  0  0  0  0
 23 44  1  0  0  0  0
 23 45  1  0  0  0  0
 24 25  2  0  0  0  0
 24 33  1  0  0  0  0
 25 26  1  0  0  0  0
 25 46  1  0  0  0  0
 26 27  1  0  0  0  0
 27 33  2  0  0  0  0
 28 29  1  0  0  0  0
 28 32  1  0  0  0  0
 28 27  1  0  0  0  0
 28 47  1  1  0  0  0
 29 30  1  0  0  0  0
 29 48  1  0  0  0  0
 29 49  1  0  0  0  0
 30 31  1  0  0  0  0
 31 32  1  0  0  0  0
 31 50  1  0  0  0  0
 31 51  1  0  0  0  0
 32 52  1  0  0  0  0
M  END
$$$$
