CHEMBL3099472
 OpenBabel04072215363D

 76 78  0  0  0  0  0  0  0  0999 V2000
    0.1188   -1.3227   -1.4513 C   0  0  0  0  0  0  0  0  0  0  0  0
    0.6068   -0.5478   -0.3706 O   0  0  0  0  0  0  0  0  0  0  0  0
    1.3141   -1.1853    0.6143 C   0  0  0  0  0  0  0  0  0  0  0  0
    1.5572   -2.5537    0.6332 C   0  0  0  0  0  0  0  0  0  0  0  0
    2.4484   -3.1896    1.5491 C   0  0  0  0  0  0  0  0  0  0  0  0
    2.7220   -4.6563    1.4797 C   0  0  0  0  0  0  0  0  0  0  0  0
    2.5794   -5.2615    0.2112 C   0  0  0  0  0  0  0  0  0  0  0  0
    2.8361   -6.5969   -0.0576 C   0  0  0  0  0  0  0  0  0  0  0  0
    2.6489   -7.1521   -1.3532 N   0  0  0  0  0  0  0  0  0  0  0  0
    2.6238   -6.3950   -2.5203 C   0  0  0  0  0  0  0  0  0  0  0  0
    2.7676   -5.1733   -2.5671 O   0  0  0  0  0  0  0  0  0  0  0  0
    2.4386   -7.1558   -3.6661 N   0  0  0  0  0  0  0  0  0  0  0  0
    2.4193   -6.4696   -4.9175 C   0  0  0  0  0  0  0  0  0  0  0  0
    3.5324   -5.6904   -5.2768 C   0  0  0  0  0  0  0  0  0  0  0  0
    3.5363   -4.9358   -6.4514 C   0  0  0  0  0  0  0  0  0  0  0  0
    4.5462   -4.1001   -6.8498 O   0  0  0  0  0  0  0  0  0  0  0  0
    5.8529   -4.4923   -6.4226 C   0  0  0  0  0  0  0  0  0  0  0  0
    6.8661   -3.4785   -6.9421 C   0  0  0  0  0  0  0  0  0  0  0  0
    8.2937   -3.8599   -6.5335 C   0  0  0  0  0  0  0  0  0  0  0  0
    8.7225   -5.1768   -7.0373 N   0  0  0  0  0  0  0  0  0  0  0  0
    8.7070   -5.2390   -8.5010 C   0  0  0  0  0  0  0  0  0  0  0  0
   10.0628   -5.4973   -6.5432 C   0  0  0  0  0  0  0  0  0  0  0  0
    2.4180   -4.9639   -7.2774 C   0  0  0  0  0  0  0  0  0  0  0  0
    1.3112   -5.7458   -6.9368 C   0  0  0  0  0  0  0  0  0  0  0  0
    1.2920   -6.5007   -5.7516 C   0  0  0  0  0  0  0  0  0  0  0  0
    0.0170   -7.1792   -5.3397 C   0  0  0  0  0  0  0  0  0  0  0  0
    3.2835   -7.3941    0.9850 C   0  0  0  0  0  0  0  0  0  0  0  0
    3.4683   -6.8394    2.2688 C   0  0  0  0  0  0  0  0  0  0  0  0
    3.8314   -7.6486    3.3171 O   0  0  0  0  0  0  0  0  0  0  0  0
    4.9081   -8.5468    3.0788 C   0  0  0  0  0  0  0  0  0  0  0  0
    3.1720   -5.4872    2.5390 C   0  0  0  0  0  0  0  0  0  0  0  0
    3.2673   -4.9299    3.8034 O   0  0  0  0  0  0  0  0  0  0  0  0
    4.2042   -5.5248    4.7083 C   0  0  0  0  0  0  0  0  0  0  0  0
    3.1446   -2.3463    2.4085 C   0  0  0  0  0  0  0  0  0  0  0  0
    2.8822   -0.9757    2.4620 C   0  0  0  0  0  0  0  0  0  0  0  0
    1.9208   -0.3998    1.5886 C   0  0  0  0  0  0  0  0  0  0  0  0
    1.5565    1.0311    1.8029 C   0  0  0  0  0  0  0  0  0  0  0  0
    0.1501    1.4986    1.4897 C   0  0  0  0  0  0  0  0  0  0  0  0
    2.3823    1.8073    2.2915 O   0  0  0  0  0  0  0  0  0  0  0  0
   -0.4147   -0.6465   -2.1372 H   0  0  0  0  0  0  0  0  0  0  0  0
   -0.6057   -2.0680   -1.1026 H   0  0  0  0  0  0  0  0  0  0  0  0
    0.9336   -1.7880   -2.0108 H   0  0  0  0  0  0  0  0  0  0  0  0
    1.0326   -3.1708   -0.0922 H   0  0  0  0  0  0  0  0  0  0  0  0
    2.2583   -4.6328   -0.6052 H   0  0  0  0  0  0  0  0  0  0  0  0
    2.7123   -8.1506   -1.4475 H   0  0  0  0  0  0  0  0  0  0  0  0
    1.7909   -7.9224   -3.5594 H   0  0  0  0  0  0  0  0  0  0  0  0
    4.3737   -5.6535   -4.5934 H   0  0  0  0  0  0  0  0  0  0  0  0
    6.0691   -5.4908   -6.8210 H   0  0  0  0  0  0  0  0  0  0  0  0
    5.9238   -4.5031   -5.3302 H   0  0  0  0  0  0  0  0  0  0  0  0
    6.6228   -2.4860   -6.5414 H   0  0  0  0  0  0  0  0  0  0  0  0
    6.7752   -3.3705   -8.0290 H   0  0  0  0  0  0  0  0  0  0  0  0
    8.3301   -3.8751   -5.4344 H   0  0  0  0  0  0  0  0  0  0  0  0
    8.9865   -3.0737   -6.8588 H   0  0  0  0  0  0  0  0  0  0  0  0
    7.6896   -5.1416   -8.8933 H   0  0  0  0  0  0  0  0  0  0  0  0
    9.0616   -6.2152   -8.8490 H   0  0  0  0  0  0  0  0  0  0  0  0
    9.3315   -4.4600   -8.9514 H   0  0  0  0  0  0  0  0  0  0  0  0
   10.0792   -5.5143   -5.4481 H   0  0  0  0  0  0  0  0  0  0  0  0
   10.8121   -4.7779   -6.8919 H   0  0  0  0  0  0  0  0  0  0  0  0
   10.3640   -6.4976   -6.8753 H   0  0  0  0  0  0  0  0  0  0  0  0
    2.4008   -4.3633   -8.1831 H   0  0  0  0  0  0  0  0  0  0  0  0
    0.4412   -5.7271   -7.5927 H   0  0  0  0  0  0  0  0  0  0  0  0
   -0.7582   -7.0738   -6.1052 H   0  0  0  0  0  0  0  0  0  0  0  0
   -0.3664   -6.7176   -4.4221 H   0  0  0  0  0  0  0  0  0  0  0  0
    0.1817   -8.2467   -5.1722 H   0  0  0  0  0  0  0  0  0  0  0  0
    3.5101   -8.4399    0.8170 H   0  0  0  0  0  0  0  0  0  0  0  0
    5.3890   -8.7422    4.0433 H   0  0  0  0  0  0  0  0  0  0  0  0
    5.6710   -8.1440    2.4033 H   0  0  0  0  0  0  0  0  0  0  0  0
    4.4945   -9.4827    2.7066 H   0  0  0  0  0  0  0  0  0  0  0  0
    4.4500   -4.8059    5.4925 H   0  0  0  0  0  0  0  0  0  0  0  0
    5.1437   -5.7835    4.2067 H   0  0  0  0  0  0  0  0  0  0  0  0
    3.7635   -6.3931    5.2177 H   0  0  0  0  0  0  0  0  0  0  0  0
    3.9266   -2.7477    3.0699 H   0  0  0  0  0  0  0  0  0  0  0  0
    3.4264   -0.3624    3.1725 H   0  0  0  0  0  0  0  0  0  0  0  0
   -0.5164    0.7094    1.1417 H   0  0  0  0  0  0  0  0  0  0  0  0
    0.1945    2.2831    0.7309 H   0  0  0  0  0  0  0  0  0  0  0  0
   -0.3063    1.8885    2.4044 H   0  0  0  0  0  0  0  0  0  0  0  0
  1  2  1  0  0  0  0
  1 40  1  0  0  0  0
  1 41  1  0  0  0  0
  1 42  1  0  0  0  0
  2  3  1  0  0  0  0
  3  4  1  0  0  0  0
  3 36  2  0  0  0  0
  4  5  2  0  0  0  0
  4 43  1  0  0  0  0
  5  6  1  0  0  0  0
  5 34  1  0  0  0  0
  6  7  1  0  0  0  0
  6 31  2  0  0  0  0
  7  8  2  0  0  0  0
  7 44  1  0  0  0  0
  8  9  1  0  0  0  0
  8 27  1  0  0  0  0
  9 10  1  0  0  0  0
  9 45  1  0  0  0  0
 10 11  2  0  0  0  0
 10 12  1  0  0  0  0
 12 13  1  0  0  0  0
 12 46  1  0  0  0  0
 13 14  1  0  0  0  0
 13 25  2  0  0  0  0
 14 15  2  0  0  0  0
 14 47  1  0  0  0  0
 15 16  1  0  0  0  0
 15 23  1  0  0  0  0
 16 17  1  0  0  0  0
 17 18  1  0  0  0  0
 17 48  1  0  0  0  0
 17 49  1  0  0  0  0
 18 19  1  0  0  0  0
 18 50  1  0  0  0  0
 18 51  1  0  0  0  0
 19 20  1  0  0  0  0
 19 52  1  0  0  0  0
 19 53  1  0  0  0  0
 20 21  1  0  0  0  0
 20 22  1  0  0  0  0
 21 54  1  0  0  0  0
 21 55  1  0  0  0  0
 21 56  1  0  0  0  0
 22 57  1  0  0  0  0
 22 58  1  0  0  0  0
 22 59  1  0  0  0  0
 23 24  2  0  0  0  0
 23 60  1  0  0  0  0
 24 25  1  0  0  0  0
 24 61  1  0  0  0  0
 25 26  1  0  0  0  0
 26 62  1  0  0  0  0
 26 63  1  0  0  0  0
 26 64  1  0  0  0  0
 27 28  2  0  0  0  0
 27 65  1  0  0  0  0
 28 29  1  0  0  0  0
 28 31  1  0  0  0  0
 29 30  1  0  0  0  0
 30 66  1  0  0  0  0
 30 67  1  0  0  0  0
 30 68  1  0  0  0  0
 31 32  1  0  0  0  0
 32 33  1  0  0  0  0
 33 69  1  0  0  0  0
 33 70  1  0  0  0  0
 33 71  1  0  0  0  0
 34 35  2  0  0  0  0
 34 72  1  0  0  0  0
 35 36  1  0  0  0  0
 35 73  1  0  0  0  0
 36 37  1  0  0  0  0
 37 38  1  0  0  0  0
 37 39  2  0  0  0  0
 38 74  1  0  0  0  0
 38 75  1  0  0  0  0
 38 76  1  0  0  0  0
M  END
$$$$
