CHEMBL3706827
 OpenBabel04072215373D

 47 49  0  0  0  0  0  0  0  0999 V2000
    1.0001    0.6925    0.3775 C   0  0  0  0  0  0  0  0  0  0  0  0
    2.2631    0.1614    0.0295 O   0  0  0  0  0  0  0  0  0  0  0  0
    2.7368    0.6163   -1.2412 C   0  0  0  0  0  0  0  0  0  0  0  0
    4.0660   -0.0938   -1.4445 C   0  0  0  0  0  0  0  0  0  0  0  0
    4.7267    0.2590   -2.6451 O   0  0  0  0  0  0  0  0  0  0  0  0
    6.0866    0.0697   -2.7014 C   0  0  0  0  0  0  0  0  0  0  0  0
    6.6638    0.8683   -3.7204 C   0  0  0  0  0  0  0  0  0  0  0  0
    8.0376    0.9485   -3.9481 C   0  0  0  0  0  0  0  0  0  0  0  0
    8.5109    1.7809   -4.8886 N   0  0  0  0  0  0  0  0  0  0  0  0
    9.8364    1.8243   -5.0452 C   0  0  0  0  0  0  0  0  0  0  0  0
   10.7369    1.0974   -4.3737 N   0  0  0  0  0  0  0  0  0  0  0  0
   10.2534    0.2781   -3.4211 C   0  0  0  0  0  0  0  0  0  0  0  0
   11.1660   -0.4872   -2.6394 N   0  0  0  0  0  0  0  0  0  0  0  0
   12.5514   -0.2989   -2.6993 C   0  0  0  0  0  0  0  0  0  0  0  0
   13.2318    0.8356   -2.4538 C   0  0  0  0  0  0  0  0  0  0  0  0
   12.4562    2.2847   -1.8950 Cl  0  0  0  0  0  0  0  0  0  0  0  0
   14.7026    0.9179   -2.5975 C   0  0  0  0  0  0  0  0  0  0  0  0
   15.3559    1.9139   -2.3079 O   0  0  0  0  0  0  0  0  0  0  0  0
   15.3897   -0.2642   -3.1337 C   0  0  0  0  0  0  0  0  0  0  0  0
   14.7864   -1.4386   -3.3299 C   0  0  0  0  0  0  0  0  0  0  0  0
   15.5769   -2.4683   -3.8193 O   0  0  0  0  0  0  0  0  0  0  0  0
   14.9996   -3.7515   -4.0105 C   0  0  0  0  0  0  0  0  0  0  0  0
   13.3306   -1.5592   -2.9955 C   0  0  0  0  0  0  0  0  0  0  0  0
   12.7358   -2.6362   -2.9554 O   0  0  0  0  0  0  0  0  0  0  0  0
    8.8799    0.1686   -3.1619 C   0  0  0  0  0  0  0  0  0  0  0  0
    8.3174   -0.6475   -2.1454 C   0  0  0  0  0  0  0  0  0  0  0  0
    6.9349   -0.7174   -1.9120 C   0  0  0  0  0  0  0  0  0  0  0  0
    6.6649   -1.4515   -0.7919 O   0  0  0  0  0  0  0  0  0  0  0  0
    5.6904   -2.4824   -0.8370 C   0  0  0  0  0  0  0  0  0  0  0  0
    0.7325    0.2949    1.3609 H   0  0  0  0  0  0  0  0  0  0  0  0
    0.2421    0.3774   -0.3440 H   0  0  0  0  0  0  0  0  0  0  0  0
    1.0476    1.7821    0.4408 H   0  0  0  0  0  0  0  0  0  0  0  0
    2.8632    1.7029   -1.2489 H   0  0  0  0  0  0  0  0  0  0  0  0
    2.0324    0.3374   -2.0339 H   0  0  0  0  0  0  0  0  0  0  0  0
    3.8043   -1.1507   -1.5036 H   0  0  0  0  0  0  0  0  0  0  0  0
    4.6938    0.1061   -0.5709 H   0  0  0  0  0  0  0  0  0  0  0  0
    6.0114    1.5036   -4.3159 H   0  0  0  0  0  0  0  0  0  0  0  0
   10.2209    2.5164   -5.7868 H   0  0  0  0  0  0  0  0  0  0  0  0
   10.9383   -1.4805   -2.7441 H   0  0  0  0  0  0  0  0  0  0  0  0
   16.4440   -0.1366   -3.3449 H   0  0  0  0  0  0  0  0  0  0  0  0
   15.7674   -4.3911   -4.4580 H   0  0  0  0  0  0  0  0  0  0  0  0
   14.1589   -3.7103   -4.7089 H   0  0  0  0  0  0  0  0  0  0  0  0
   14.7159   -4.1974   -3.0530 H   0  0  0  0  0  0  0  0  0  0  0  0
    8.9759   -1.2096   -1.4832 H   0  0  0  0  0  0  0  0  0  0  0  0
    6.1345   -3.4219   -0.4962 H   0  0  0  0  0  0  0  0  0  0  0  0
    5.2513   -2.6452   -1.8255 H   0  0  0  0  0  0  0  0  0  0  0  0
    4.9217   -2.2324   -0.0967 H   0  0  0  0  0  0  0  0  0  0  0  0
  1  2  1  0  0  0  0
  1 30  1  0  0  0  0
  1 31  1  0  0  0  0
  1 32  1  0  0  0  0
  2  3  1  0  0  0  0
  3  4  1  0  0  0  0
  3 33  1  0  0  0  0
  3 34  1  0  0  0  0
  4  5  1  0  0  0  0
  4 35  1  0  0  0  0
  4 36  1  0  0  0  0
  5  6  1  0  0  0  0
  6  7  1  0  0  0  0
  6 27  2  0  0  0  0
  7  8  2  0  0  0  0
  7 37  1  0  0  0  0
  8  9  1  0  0  0  0
  8 25  1  0  0  0  0
  9 10  2  0  0  0  0
 10 11  1  0  0  0  0
 10 38  1  0  0  0  0
 11 12  2  0  0  0  0
 12 13  1  0  0  0  0
 12 25  1  0  0  0  0
 13 14  1  0  0  0  0
 13 39  1  0  0  0  0
 14 15  2  0  0  0  0
 14 23  1  0  0  0  0
 15 16  1  0  0  0  0
 15 17  1  0  0  0  0
 17 18  2  0  0  0  0
 17 19  1  0  0  0  0
 19 20  2  0  0  0  0
 19 40  1  0  0  0  0
 20 21  1  0  0  0  0
 20 23  1  0  0  0  0
 21 22  1  0  0  0  0
 22 41  1  0  0  0  0
 22 42  1  0  0  0  0
 22 43  1  0  0  0  0
 23 24  2  0  0  0  0
 25 26  2  0  0  0  0
 26 27  1  0  0  0  0
 26 44  1  0  0  0  0
 27 28  1  0  0  0  0
 28 29  1  0  0  0  0
 29 45  1  0  0  0  0
 29 46  1  0  0  0  0
 29 47  1  0  0  0  0
M  END
$$$$
