CHEMBL250395
 OpenBabel04072215363D

 40 43  0  0  0  0  0  0  0  0999 V2000
    3.3888   -0.3000   -1.1963 C   0  0  0  0  0  0  0  0  0  0  0  0
    2.5224   -0.1191   -0.0732 O   0  0  0  0  0  0  0  0  0  0  0  0
    3.1627    0.2987    1.0673 C   0  0  0  0  0  0  0  0  0  0  0  0
    4.2645    1.1639    1.0445 C   0  0  0  0  0  0  0  0  0  0  0  0
    4.9491    1.4956    2.2081 C   0  0  0  0  0  0  0  0  0  0  0  0
    4.5385    0.9827    3.4400 C   0  0  0  0  0  0  0  0  0  0  0  0
    3.3855    0.1705    3.5144 C   0  0  0  0  0  0  0  0  0  0  0  0
    2.6995   -0.4793    4.5840 C   0  0  0  0  0  0  0  0  0  0  0  0
    3.0424   -0.4705    5.9713 C   0  0  0  0  0  0  0  0  0  0  0  0
    2.8277   -1.4333    6.8809 C   0  0  0  0  0  0  0  0  0  0  0  0
    2.1950   -2.7695    6.7024 C   0  0  0  0  0  0  0  0  0  0  0  0
    1.9974   -3.4142    5.6978 O   0  0  0  0  0  0  0  0  0  0  0  0
    1.8962   -3.1386    8.0018 N   0  0  0  0  0  0  0  0  0  0  0  0
    2.4318   -2.3299    8.9767 N   0  0  0  0  0  0  0  0  0  0  0  0
    3.0382   -1.3447    8.3542 C   0  0  0  0  0  0  0  0  0  0  0  0
    3.8013   -0.3739    9.0820 C   0  0  0  0  0  0  0  0  0  0  0  0
    5.2433    0.3174    8.4602 S   0  0  0  0  0  0  0  0  0  0  0  0
    5.5237    1.2303    9.8231 N   0  0  0  0  0  0  0  0  0  0  0  0
    4.6343    1.0143   10.7739 N   0  0  0  0  0  0  0  0  0  0  0  0
    3.6721    0.0860   10.3881 C   0  0  0  0  0  0  0  0  0  0  0  0
    2.6403   -0.2900   11.3895 C   0  0  0  0  0  0  0  0  0  0  0  0
    1.5622   -1.0386    4.0598 C   0  0  0  0  0  0  0  0  0  0  0  0
    1.6012   -0.8912    2.6972 N   0  0  0  0  0  0  0  0  0  0  0  0
    0.5768   -1.4202    1.8257 C   0  0  0  0  0  0  0  0  0  0  0  0
    2.6984   -0.1389    2.3273 C   0  0  0  0  0  0  0  0  0  0  0  0
    2.9774   -1.0978   -1.8217 H   0  0  0  0  0  0  0  0  0  0  0  0
    4.4043   -0.6033   -0.9125 H   0  0  0  0  0  0  0  0  0  0  0  0
    3.4191    0.6196   -1.7896 H   0  0  0  0  0  0  0  0  0  0  0  0
    4.6105    1.5912    0.1070 H   0  0  0  0  0  0  0  0  0  0  0  0
    5.8150    2.1514    2.1557 H   0  0  0  0  0  0  0  0  0  0  0  0
    5.0969    1.2326    4.3362 H   0  0  0  0  0  0  0  0  0  0  0  0
    3.4841    0.4671    6.2962 H   0  0  0  0  0  0  0  0  0  0  0  0
    1.4736   -4.0296    8.2366 H   0  0  0  0  0  0  0  0  0  0  0  0
    2.8351    0.2012   12.3486 H   0  0  0  0  0  0  0  0  0  0  0  0
    2.6441   -1.3697   11.5665 H   0  0  0  0  0  0  0  0  0  0  0  0
    1.6443    0.0113   11.0514 H   0  0  0  0  0  0  0  0  0  0  0  0
    0.7394   -1.5590    4.5292 H   0  0  0  0  0  0  0  0  0  0  0  0
   -0.0665   -2.0964    2.3956 H   0  0  0  0  0  0  0  0  0  0  0  0
    1.0485   -1.9808    1.0158 H   0  0  0  0  0  0  0  0  0  0  0  0
   -0.0172   -0.5859    1.4464 H   0  0  0  0  0  0  0  0  0  0  0  0
  1  2  1  0  0  0  0
  1 26  1  0  0  0  0
  1 27  1  0  0  0  0
  1 28  1  0  0  0  0
  2  3  1  0  0  0  0
  3  4  1  0  0  0  0
  3 25  2  0  0  0  0
  4  5  2  0  0  0  0
  4 29  1  0  0  0  0
  5  6  1  0  0  0  0
  5 30  1  0  0  0  0
  6  7  2  0  0  0  0
  6 31  1  0  0  0  0
  7  8  1  0  0  0  0
  7 25  1  0  0  0  0
  8  9  1  0  0  0  0
  8 22  2  0  0  0  0
  9 10  2  0  0  0  0
  9 32  1  0  0  0  0
 10 11  1  0  0  0  0
 10 15  1  0  0  0  0
 11 12  2  0  0  0  0
 11 13  1  0  0  0  0
 13 14  1  0  0  0  0
 13 33  1  0  0  0  0
 14 15  2  0  0  0  0
 15 16  1  0  0  0  0
 16 17  1  0  0  0  0
 16 20  2  0  0  0  0
 17 18  1  0  0  0  0
 18 19  2  0  0  0  0
 19 20  1  0  0  0  0
 20 21  1  0  0  0  0
 21 34  1  0  0  0  0
 21 35  1  0  0  0  0
 21 36  1  0  0  0  0
 22 23  1  0  0  0  0
 22 37  1  0  0  0  0
 23 24  1  0  0  0  0
 23 25  1  0  0  0  0
 24 38  1  0  0  0  0
 24 39  1  0  0  0  0
 24 40  1  0  0  0  0
M  END
$$$$
