CHEMBL3780236
 OpenBabel04072215373D

 64 68  0  0  0  0  0  0  0  0999 V2000
   10.8960    2.9989   -0.7416 C   0  0  0  0  0  0  0  0  0  0  0  0
   10.2058    2.2314   -1.7208 O   0  0  0  0  0  0  0  0  0  0  0  0
    8.9499    2.6611   -2.0525 C   0  0  0  0  0  0  0  0  0  0  0  0
    8.2970    3.7680   -1.5111 C   0  0  0  0  0  0  0  0  0  0  0  0
    7.0066    4.1049   -1.9317 C   0  0  0  0  0  0  0  0  0  0  0  0
    6.3538    3.3506   -2.9135 C   0  0  0  0  0  0  0  0  0  0  0  0
    4.9293    3.6287   -3.3291 C   0  0  0  0  0  0  0  0  0  0  0  0
    4.4606    5.0621   -3.3023 C   0  0  0  0  0  0  0  0  0  0  0  0
    3.7811    5.4001   -2.1885 N   0  0  0  0  0  0  0  0  0  0  0  0
    3.1352    6.5890   -2.1217 N   0  0  0  0  0  0  0  0  0  0  0  0
    3.1158    7.4459   -3.1658 C   0  0  0  0  0  0  0  0  0  0  0  0
    2.2797    8.5937   -3.0967 N   0  0  0  0  0  0  0  0  0  0  0  0
    1.3906    8.9329   -2.0464 C   0  0  0  0  0  0  0  0  0  0  0  0
    1.0664   10.2744   -1.8455 C   0  0  0  0  0  0  0  0  0  0  0  0
    0.2294   10.6654   -0.7941 C   0  0  0  0  0  0  0  0  0  0  0  0
   -0.3402    9.7293    0.0755 C   0  0  0  0  0  0  0  0  0  0  0  0
   -1.1257   10.0833    1.2015 N   0  0  0  0  0  0  0  0  0  0  0  0
   -1.5145   11.3658    1.5355 C   0  0  0  0  0  0  0  0  0  0  0  0
   -1.3341   12.3553    0.8276 O   0  0  0  0  0  0  0  0  0  0  0  0
   -2.0965   11.4481    2.7927 N   0  0  0  0  0  0  0  0  0  0  0  0
   -2.4933   12.7141    3.2992 C   0  0  0  0  0  0  0  0  0  0  0  0
   -2.1357   13.0697    4.5994 C   0  0  0  0  0  0  0  0  0  0  0  0
   -2.3849   14.3659    5.0595 C   0  0  0  0  0  0  0  0  0  0  0  0
   -3.0230   15.2980    4.2375 C   0  0  0  0  0  0  0  0  0  0  0  0
   -3.4276   14.9439    2.9438 C   0  0  0  0  0  0  0  0  0  0  0  0
   -4.0966   15.9377    2.0274 C   0  0  0  0  0  0  0  0  0  0  0  0
   -4.2235   17.1799    2.5765 F   0  0  0  0  0  0  0  0  0  0  0  0
   -3.4222   16.1206    0.8585 F   0  0  0  0  0  0  0  0  0  0  0  0
   -5.3579   15.5602    1.6770 F   0  0  0  0  0  0  0  0  0  0  0  0
   -3.1691   13.6406    2.4925 C   0  0  0  0  0  0  0  0  0  0  0  0
   -0.0942    8.3804   -0.1732 C   0  0  0  0  0  0  0  0  0  0  0  0
    0.7413    7.9911   -1.2367 C   0  0  0  0  0  0  0  0  0  0  0  0
    3.8803    7.1735   -4.3284 C   0  0  0  0  0  0  0  0  0  0  0  0
    3.9541    8.0352   -5.4551 C   0  0  0  0  0  0  0  0  0  0  0  0
    4.7452    7.7290   -6.5673 C   0  0  0  0  0  0  0  0  0  0  0  0
    5.4836    6.5563   -6.5879 C   0  0  0  0  0  0  0  0  0  0  0  0
    5.4076    5.6776   -5.5114 C   0  0  0  0  0  0  0  0  0  0  0  0
    4.6042    5.9562   -4.3777 C   0  0  0  0  0  0  0  0  0  0  0  0
    7.0093    2.2271   -3.4392 C   0  0  0  0  0  0  0  0  0  0  0  0
    8.2965    1.8904   -3.0140 C   0  0  0  0  0  0  0  0  0  0  0  0
   11.8916    2.5653   -0.6118 H   0  0  0  0  0  0  0  0  0  0  0  0
   10.3816    2.9529    0.2244 H   0  0  0  0  0  0  0  0  0  0  0  0
   11.0264    4.0355   -1.0706 H   0  0  0  0  0  0  0  0  0  0  0  0
    8.7547    4.3873   -0.7475 H   0  0  0  0  0  0  0  0  0  0  0  0
    6.5149    4.9568   -1.4642 H   0  0  0  0  0  0  0  0  0  0  0  0
    4.2811    3.0469   -2.6589 H   0  0  0  0  0  0  0  0  0  0  0  0
    4.7407    3.2217   -4.3308 H   0  0  0  0  0  0  0  0  0  0  0  0
    2.7974    9.4066   -3.4124 H   0  0  0  0  0  0  0  0  0  0  0  0
    1.4784   11.0512   -2.4845 H   0  0  0  0  0  0  0  0  0  0  0  0
    0.0608   11.7303   -0.6847 H   0  0  0  0  0  0  0  0  0  0  0  0
   -1.4998    9.3292    1.7595 H   0  0  0  0  0  0  0  0  0  0  0  0
   -1.7400   10.7872    3.4686 H   0  0  0  0  0  0  0  0  0  0  0  0
   -1.5927   12.3803    5.2392 H   0  0  0  0  0  0  0  0  0  0  0  0
   -2.0510   14.6633    6.0508 H   0  0  0  0  0  0  0  0  0  0  0  0
   -3.1894   16.3096    4.6051 H   0  0  0  0  0  0  0  0  0  0  0  0
   -3.4718   13.3630    1.4825 H   0  0  0  0  0  0  0  0  0  0  0  0
   -0.5293    7.6022    0.4484 H   0  0  0  0  0  0  0  0  0  0  0  0
    0.8867    6.9264   -1.4019 H   0  0  0  0  0  0  0  0  0  0  0  0
    3.3796    8.9581   -5.4879 H   0  0  0  0  0  0  0  0  0  0  0  0
    4.7838    8.4129   -7.4127 H   0  0  0  0  0  0  0  0  0  0  0  0
    6.1163    6.3207   -7.4415 H   0  0  0  0  0  0  0  0  0  0  0  0
    6.0097    4.7711   -5.5544 H   0  0  0  0  0  0  0  0  0  0  0  0
    6.5159    1.5919   -4.1721 H   0  0  0  0  0  0  0  0  0  0  0  0
    8.7872    1.0119   -3.4265 H   0  0  0  0  0  0  0  0  0  0  0  0
  1  2  1  0  0  0  0
  1 41  1  0  0  0  0
  1 42  1  0  0  0  0
  1 43  1  0  0  0  0
  2  3  1  0  0  0  0
  3  4  1  0  0  0  0
  3 40  2  0  0  0  0
  4  5  2  0  0  0  0
  4 44  1  0  0  0  0
  5  6  1  0  0  0  0
  5 45  1  0  0  0  0
  6  7  1  0  0  0  0
  6 39  2  0  0  0  0
  7  8  1  0  0  0  0
  7 46  1  0  0  0  0
  7 47  1  0  0  0  0
  8  9  1  0  0  0  0
  8 38  2  0  0  0  0
  9 10  2  0  0  0  0
 10 11  1  0  0  0  0
 11 12  1  0  0  0  0
 11 33  2  0  0  0  0
 12 13  1  0  0  0  0
 12 48  1  0  0  0  0
 13 14  1  0  0  0  0
 13 32  2  0  0  0  0
 14 15  2  0  0  0  0
 14 49  1  0  0  0  0
 15 16  1  0  0  0  0
 15 50  1  0  0  0  0
 16 17  1  0  0  0  0
 16 31  2  0  0  0  0
 17 18  1  0  0  0  0
 17 51  1  0  0  0  0
 18 19  2  0  0  0  0
 18 20  1  0  0  0  0
 20 21  1  0  0  0  0
 20 52  1  0  0  0  0
 21 22  1  0  0  0  0
 21 30  2  0  0  0  0
 22 23  2  0  0  0  0
 22 53  1  0  0  0  0
 23 24  1  0  0  0  0
 23 54  1  0  0  0  0
 24 25  2  0  0  0  0
 24 55  1  0  0  0  0
 25 26  1  0  0  0  0
 25 30  1  0  0  0  0
 26 27  1  0  0  0  0
 26 28  1  0  0  0  0
 26 29  1  0  0  0  0
 30 56  1  0  0  0  0
 31 32  1  0  0  0  0
 31 57  1  0  0  0  0
 32 58  1  0  0  0  0
 33 34  1  0  0  0  0
 33 38  1  0  0  0  0
 34 35  2  0  0  0  0
 34 59  1  0  0  0  0
 35 36  1  0  0  0  0
 35 60  1  0  0  0  0
 36 37  2  0  0  0  0
 36 61  1  0  0  0  0
 37 38  1  0  0  0  0
 37 62  1  0  0  0  0
 39 40  1  0  0  0  0
 39 63  1  0  0  0  0
 40 64  1  0  0  0  0
M  END
$$$$
