CHEMBL373435
 OpenBabel04072215373D

 54 57  0  0  0  0  0  0  0  0999 V2000
    3.5550    1.9637   -5.8288 C   0  0  0  0  0  0  0  0  0  0  0  0
    4.8198    1.8169   -5.0202 C   0  0  0  0  0  0  0  0  0  0  0  0
    5.4439    2.8116   -4.6661 O   0  0  0  0  0  0  0  0  0  0  0  0
    5.0750    0.4943   -4.7074 N   0  0  0  0  0  0  0  0  0  0  0  0
    6.1312    0.0670   -3.9207 C   0  0  0  0  0  0  0  0  0  0  0  0
    7.2307    0.8013   -3.7636 N   0  0  0  0  0  0  0  0  0  0  0  0
    8.0364    0.0585   -3.0080 N   0  0  0  0  0  0  0  0  0  0  0  0
    9.3403    0.5738   -2.6630 C   0  0  0  0  0  0  0  0  0  0  0  0
    7.5053   -1.1502   -2.6412 C   0  0  0  0  0  0  0  0  0  0  0  0
    8.0416   -2.1868   -1.8678 C   0  0  0  0  0  0  0  0  0  0  0  0
    7.2378   -3.2959   -1.6266 C   0  0  0  0  0  0  0  0  0  0  0  0
    5.9428   -3.3551   -2.1318 C   0  0  0  0  0  0  0  0  0  0  0  0
    5.3862   -2.3190   -2.9253 C   0  0  0  0  0  0  0  0  0  0  0  0
    3.9850   -2.4134   -3.3796 C   0  0  0  0  0  0  0  0  0  0  0  0
    3.1103   -1.3319   -3.2638 C   0  0  0  0  0  0  0  0  0  0  0  0
    1.8123   -1.3860   -3.7771 C   0  0  0  0  0  0  0  0  0  0  0  0
    1.3042   -2.5567   -4.3389 C   0  0  0  0  0  0  0  0  0  0  0  0
   -0.0146   -2.6546   -4.8382 N   0  0  0  0  0  0  0  0  0  0  0  0
   -0.8452   -1.5811   -5.1070 C   0  0  0  0  0  0  0  0  0  0  0  0
   -0.4829   -0.4082   -5.1255 O   0  0  0  0  0  0  0  0  0  0  0  0
   -2.1559   -1.9904   -5.3060 N   0  0  0  0  0  0  0  0  0  0  0  0
   -3.1904   -1.0493   -5.5259 C   0  0  0  0  0  0  0  0  0  0  0  0
   -4.4083   -1.2278   -4.8691 C   0  0  0  0  0  0  0  0  0  0  0  0
   -5.4057   -0.2567   -4.9781 C   0  0  0  0  0  0  0  0  0  0  0  0
   -5.2083    0.8708   -5.7778 C   0  0  0  0  0  0  0  0  0  0  0  0
   -4.0112    1.0376   -6.4792 C   0  0  0  0  0  0  0  0  0  0  0  0
   -3.7821    2.2326   -7.3568 C   0  0  0  0  0  0  0  0  0  0  0  0
   -3.0073    0.0694   -6.3476 C   0  0  0  0  0  0  0  0  0  0  0  0
    2.1245   -3.6845   -4.3640 C   0  0  0  0  0  0  0  0  0  0  0  0
    3.4494   -3.6076   -3.9110 C   0  0  0  0  0  0  0  0  0  0  0  0
    6.2211   -1.1850   -3.2003 C   0  0  0  0  0  0  0  0  0  0  0  0
    3.4511    3.0017   -6.1583 H   0  0  0  0  0  0  0  0  0  0  0  0
    2.6915    1.7021   -5.2107 H   0  0  0  0  0  0  0  0  0  0  0  0
    3.5935    1.3198   -6.7108 H   0  0  0  0  0  0  0  0  0  0  0  0
    4.3908   -0.2013   -4.9592 H   0  0  0  0  0  0  0  0  0  0  0  0
    9.4855    1.5500   -3.1350 H   0  0  0  0  0  0  0  0  0  0  0  0
   10.0945   -0.1270   -3.0277 H   0  0  0  0  0  0  0  0  0  0  0  0
    9.3961    0.6760   -1.5769 H   0  0  0  0  0  0  0  0  0  0  0  0
    9.0448   -2.1308   -1.4562 H   0  0  0  0  0  0  0  0  0  0  0  0
    7.6202   -4.1143   -1.0205 H   0  0  0  0  0  0  0  0  0  0  0  0
    5.3371   -4.2233   -1.8768 H   0  0  0  0  0  0  0  0  0  0  0  0
    3.4345   -0.4042   -2.8008 H   0  0  0  0  0  0  0  0  0  0  0  0
    1.2165   -0.4837   -3.6996 H   0  0  0  0  0  0  0  0  0  0  0  0
   -0.3085   -3.5481   -5.2040 H   0  0  0  0  0  0  0  0  0  0  0  0
   -2.4156   -2.8272   -4.8045 H   0  0  0  0  0  0  0  0  0  0  0  0
   -4.5725   -2.0795   -4.2163 H   0  0  0  0  0  0  0  0  0  0  0  0
   -6.3321   -0.3657   -4.4206 H   0  0  0  0  0  0  0  0  0  0  0  0
   -5.9919    1.6221   -5.8429 H   0  0  0  0  0  0  0  0  0  0  0  0
   -4.6173    2.9380   -7.3000 H   0  0  0  0  0  0  0  0  0  0  0  0
   -3.6753    1.9182   -8.3997 H   0  0  0  0  0  0  0  0  0  0  0  0
   -2.8761    2.7628   -7.0460 H   0  0  0  0  0  0  0  0  0  0  0  0
   -2.0710    0.2037   -6.8866 H   0  0  0  0  0  0  0  0  0  0  0  0
    1.7615   -4.6328   -4.7478 H   0  0  0  0  0  0  0  0  0  0  0  0
    4.0701   -4.5034   -3.9661 H   0  0  0  0  0  0  0  0  0  0  0  0
  1  2  1  0  0  0  0
  1 32  1  0  0  0  0
  1 33  1  0  0  0  0
  1 34  1  0  0  0  0
  2  3  2  0  0  0  0
  2  4  1  0  0  0  0
  4  5  1  0  0  0  0
  4 35  1  0  0  0  0
  5  6  2  0  0  0  0
  5 31  1  0  0  0  0
  6  7  1  0  0  0  0
  7  8  1  0  0  0  0
  7  9  1  0  0  0  0
  8 36  1  0  0  0  0
  8 37  1  0  0  0  0
  8 38  1  0  0  0  0
  9 10  1  0  0  0  0
  9 31  2  0  0  0  0
 10 11  2  0  0  0  0
 10 39  1  0  0  0  0
 11 12  1  0  0  0  0
 11 40  1  0  0  0  0
 12 13  2  0  0  0  0
 12 41  1  0  0  0  0
 13 14  1  0  0  0  0
 13 31  1  0  0  0  0
 14 15  1  0  0  0  0
 14 30  2  0  0  0  0
 15 16  2  0  0  0  0
 15 42  1  0  0  0  0
 16 17  1  0  0  0  0
 16 43  1  0  0  0  0
 17 18  1  0  0  0  0
 17 29  2  0  0  0  0
 18 19  1  0  0  0  0
 18 44  1  0  0  0  0
 19 20  2  0  0  0  0
 19 21  1  0  0  0  0
 21 22  1  0  0  0  0
 21 45  1  0  0  0  0
 22 23  1  0  0  0  0
 22 28  2  0  0  0  0
 23 24  2  0  0  0  0
 23 46  1  0  0  0  0
 24 25  1  0  0  0  0
 24 47  1  0  0  0  0
 25 26  2  0  0  0  0
 25 48  1  0  0  0  0
 26 27  1  0  0  0  0
 26 28  1  0  0  0  0
 27 49  1  0  0  0  0
 27 50  1  0  0  0  0
 27 51  1  0  0  0  0
 28 52  1  0  0  0  0
 29 30  1  0  0  0  0
 29 53  1  0  0  0  0
 30 54  1  0  0  0  0
M  END
$$$$
