CHEMBL3951126
 OpenBabel04072215373D

 53 56  0  0  0  0  0  0  0  0999 V2000
    0.5852   -2.1959   -3.9505 C   0  0  0  0  0  0  0  0  0  0  0  0
    1.7215   -2.9132   -3.4589 O   0  0  0  0  0  0  0  0  0  0  0  0
    2.6998   -2.1850   -2.8196 C   0  0  0  0  0  0  0  0  0  0  0  0
    2.5241   -0.8758   -2.3711 C   0  0  0  0  0  0  0  0  0  0  0  0
    3.5573   -0.2314   -1.6922 C   0  0  0  0  0  0  0  0  0  0  0  0
    3.5126    1.0415   -1.1896 O   0  0  0  0  0  0  0  0  0  0  0  0
    2.3577    1.8140   -1.4890 C   0  0  0  0  0  0  0  0  0  0  0  0
    4.7557   -0.9104   -1.4334 C   0  0  0  0  0  0  0  0  0  0  0  0
    4.9666   -2.2350   -1.8292 C   0  0  0  0  0  0  0  0  0  0  0  0
    6.0932   -2.9789   -1.3915 N   0  0  0  0  0  0  0  0  0  0  0  0
    6.5852   -2.7135    0.0402 C   0  0  0  0  0  0  0  0  0  0  0  0
    5.5864   -2.9588    1.2264 C   0  0  0  0  0  0  0  0  0  0  0  0
    6.2221   -2.5365    2.5409 C   0  0  0  0  0  0  0  0  0  0  0  0
    6.7494   -2.1861    3.6314 N   0  0  0  0  0  0  0  0  0  0  0  0
    7.2125   -3.4581   -2.1895 C   0  0  0  0  0  0  0  0  0  0  0  0
    7.6472   -4.7372   -1.8348 C   0  0  0  0  0  0  0  0  0  0  0  0
    8.9395   -5.1264   -2.1093 C   0  0  0  0  0  0  0  0  0  0  0  0
    9.8119   -4.3531   -2.8187 C   0  0  0  0  0  0  0  0  0  0  0  0
   11.0732   -4.8083   -2.8117 N   0  0  0  0  0  0  0  0  0  0  0  0
   11.9642   -4.1641   -3.5751 C   0  0  0  0  0  0  0  0  0  0  0  0
   11.5926   -3.1282   -4.4082 C   0  0  0  0  0  0  0  0  0  0  0  0
   12.6080   -2.7484   -5.4077 C   0  0  0  0  0  0  0  0  0  0  0  0
   12.8341   -3.2590   -6.7186 C   0  0  0  0  0  0  0  0  0  0  0  0
   14.0088   -2.8729   -7.2394 N   0  0  0  0  0  0  0  0  0  0  0  0
   14.5462   -2.1207   -6.2657 N   0  0  0  0  0  0  0  0  0  0  0  0
   15.6669   -1.2510   -6.5430 C   0  0  0  0  0  0  0  0  0  0  0  0
   13.8362   -2.1820   -5.0948 C   0  0  0  0  0  0  0  0  0  0  0  0
   10.3203   -2.5953   -4.3600 N   0  0  0  0  0  0  0  0  0  0  0  0
    9.3889   -3.1778   -3.4790 C   0  0  0  0  0  0  0  0  0  0  0  0
    8.0426   -2.7335   -3.0935 C   0  0  0  0  0  0  0  0  0  0  0  0
    3.9175   -2.8520   -2.5570 C   0  0  0  0  0  0  0  0  0  0  0  0
   -0.1055   -2.9151   -4.4067 H   0  0  0  0  0  0  0  0  0  0  0  0
    0.8850   -1.4864   -4.7321 H   0  0  0  0  0  0  0  0  0  0  0  0
    0.0294   -1.6884   -3.1566 H   0  0  0  0  0  0  0  0  0  0  0  0
    1.5832   -0.3654   -2.5203 H   0  0  0  0  0  0  0  0  0  0  0  0
    2.5269    2.8259   -1.1103 H   0  0  0  0  0  0  0  0  0  0  0  0
    1.4749    1.4098   -0.9824 H   0  0  0  0  0  0  0  0  0  0  0  0
    2.1944    1.8861   -2.5695 H   0  0  0  0  0  0  0  0  0  0  0  0
    5.5282   -0.3729   -0.8913 H   0  0  0  0  0  0  0  0  0  0  0  0
    7.0031   -1.7006    0.0836 H   0  0  0  0  0  0  0  0  0  0  0  0
    7.4360   -3.3751    0.2567 H   0  0  0  0  0  0  0  0  0  0  0  0
    5.3055   -4.0164    1.2683 H   0  0  0  0  0  0  0  0  0  0  0  0
    4.6714   -2.3770    1.0778 H   0  0  0  0  0  0  0  0  0  0  0  0
    7.0087   -5.3845   -1.2416 H   0  0  0  0  0  0  0  0  0  0  0  0
    9.2899   -6.0751   -1.6959 H   0  0  0  0  0  0  0  0  0  0  0  0
   12.9824   -4.5327   -3.5194 H   0  0  0  0  0  0  0  0  0  0  0  0
   12.2214   -3.9347   -7.3008 H   0  0  0  0  0  0  0  0  0  0  0  0
   15.9313   -1.3073   -7.6029 H   0  0  0  0  0  0  0  0  0  0  0  0
   16.5192   -1.5369   -5.9226 H   0  0  0  0  0  0  0  0  0  0  0  0
   15.3477   -0.2323   -6.3050 H   0  0  0  0  0  0  0  0  0  0  0  0
   14.2527   -1.7960   -4.1749 H   0  0  0  0  0  0  0  0  0  0  0  0
    7.7062   -1.7720   -3.4825 H   0  0  0  0  0  0  0  0  0  0  0  0
    4.0176   -3.8890   -2.8734 H   0  0  0  0  0  0  0  0  0  0  0  0
  1  2  1  0  0  0  0
  1 32  1  0  0  0  0
  1 33  1  0  0  0  0
  1 34  1  0  0  0  0
  2  3  1  0  0  0  0
  3  4  1  0  0  0  0
  3 31  2  0  0  0  0
  4  5  2  0  0  0  0
  4 35  1  0  0  0  0
  5  6  1  0  0  0  0
  5  8  1  0  0  0  0
  6  7  1  0  0  0  0
  7 36  1  0  0  0  0
  7 37  1  0  0  0  0
  7 38  1  0  0  0  0
  8  9  2  0  0  0  0
  8 39  1  0  0  0  0
  9 10  1  0  0  0  0
  9 31  1  0  0  0  0
 10 11  1  0  0  0  0
 10 15  1  0  0  0  0
 11 12  1  0  0  0  0
 11 40  1  0  0  0  0
 11 41  1  0  0  0  0
 12 13  1  0  0  0  0
 12 42  1  0  0  0  0
 12 43  1  0  0  0  0
 13 14  3  0  0  0  0
 15 16  1  0  0  0  0
 15 30  2  0  0  0  0
 16 17  2  0  0  0  0
 16 44  1  0  0  0  0
 17 18  1  0  0  0  0
 17 45  1  0  0  0  0
 18 19  1  0  0  0  0
 18 29  2  0  0  0  0
 19 20  2  0  0  0  0
 20 21  1  0  0  0  0
 20 46  1  0  0  0  0
 21 22  1  0  0  0  0
 21 28  2  0  0  0  0
 22 23  1  0  0  0  0
 22 27  2  0  0  0  0
 23 24  2  0  0  0  0
 23 47  1  0  0  0  0
 24 25  1  0  0  0  0
 25 26  1  0  0  0  0
 25 27  1  0  0  0  0
 26 48  1  0  0  0  0
 26 49  1  0  0  0  0
 26 50  1  0  0  0  0
 27 51  1  0  0  0  0
 28 29  1  0  0  0  0
 29 30  1  0  0  0  0
 30 52  1  0  0  0  0
 31 53  1  0  0  0  0
M  END
$$$$
