CHEMBL3956824
 OpenBabel04072215373D

 59 64  0  0  0  0  0  0  0  0999 V2000
    1.2024   -0.0230    0.3844 O   0  0  0  0  0  0  0  0  0  0  0  0
    2.4035    0.0161    0.1128 C   0  0  0  0  0  0  0  0  0  0  0  0
    3.2121   -1.1859    0.4177 C   0  0  0  0  0  0  0  0  0  0  0  0
    2.6011   -2.4291    0.2267 C   0  0  0  0  0  0  0  0  0  0  0  0
    3.3232   -3.5985    0.4526 C   0  0  0  0  0  0  0  0  0  0  0  0
    4.6589   -3.5208    0.8410 C   0  0  0  0  0  0  0  0  0  0  0  0
    5.2828   -2.2853    1.0430 C   0  0  0  0  0  0  0  0  0  0  0  0
    6.6493   -2.1588    1.3799 N   0  0  0  0  0  0  0  0  0  0  0  0
    7.6127   -3.1584    1.2857 C   0  0  0  0  0  0  0  0  0  0  0  0
    7.4362   -4.3012    0.8773 O   0  0  0  0  0  0  0  0  0  0  0  0
    8.9943   -2.7435    1.6063 C   0  0  0  0  0  0  0  0  0  0  0  0
   10.0658   -3.2735    0.8647 C   0  0  0  0  0  0  0  0  0  0  0  0
   11.3686   -2.8112    1.0570 C   0  0  0  0  0  0  0  0  0  0  0  0
   11.6252   -1.7334    1.9087 C   0  0  0  0  0  0  0  0  0  0  0  0
   10.5531   -1.2608    2.6725 C   0  0  0  0  0  0  0  0  0  0  0  0
   10.4496   -0.1951    3.5359 N   0  0  0  0  0  0  0  0  0  0  0  0
    9.4305   -0.4459    4.4153 C   0  0  0  0  0  0  0  0  0  0  0  0
    8.5904   -1.3340    3.7830 C   0  0  0  0  0  0  0  0  0  0  0  0
    9.2771   -1.8246    2.6326 C   0  0  0  0  0  0  0  0  0  0  0  0
    4.5310   -1.1134    0.8839 C   0  0  0  0  0  0  0  0  0  0  0  0
    2.9557    1.2327   -0.5615 C   0  0  0  0  0  0  0  0  0  0  0  0
    4.2320    1.3163   -1.1444 C   0  0  0  0  0  0  0  0  0  0  0  0
    4.7074    2.5173   -1.7236 C   0  0  0  0  0  0  0  0  0  0  0  0
    3.7807    3.5626   -1.8989 C   0  0  0  0  0  0  0  0  0  0  0  0
    3.7267    4.9276   -2.3727 C   0  0  0  0  0  0  0  0  0  0  0  0
    4.1392    6.1403   -1.6670 C   0  0  0  0  0  0  0  0  0  0  0  0
    4.2641    6.1791   -0.3198 C   0  0  0  0  0  0  0  0  0  0  0  0
    3.5798    7.1887    0.5194 C   0  0  0  0  0  0  0  0  0  0  0  0
    2.2567    7.5850    0.2311 C   0  0  0  0  0  0  0  0  0  0  0  0
    1.4984    8.3056    1.1570 C   0  0  0  0  0  0  0  0  0  0  0  0
    2.0456    8.6467    2.3890 C   0  0  0  0  0  0  0  0  0  0  0  0
    3.3603    8.2811    2.6820 C   0  0  0  0  0  0  0  0  0  0  0  0
    4.1171    7.5482    1.7585 C   0  0  0  0  0  0  0  0  0  0  0  0
    2.5416    5.0668   -2.9837 N   0  0  0  0  0  0  0  0  0  0  0  0
    1.7681    4.2847   -2.2263 N   0  0  0  0  0  0  0  0  0  0  0  0
    2.4790    3.3373   -1.5370 C   0  0  0  0  0  0  0  0  0  0  0  0
    2.0555    2.2942   -0.7208 C   0  0  0  0  0  0  0  0  0  0  0  0
    1.5630   -2.4893   -0.0900 H   0  0  0  0  0  0  0  0  0  0  0  0
    2.8535   -4.5632    0.3142 H   0  0  0  0  0  0  0  0  0  0  0  0
    5.1955   -4.4535    1.0013 H   0  0  0  0  0  0  0  0  0  0  0  0
    6.9848   -1.2212    1.5640 H   0  0  0  0  0  0  0  0  0  0  0  0
    9.8799   -4.0632    0.1381 H   0  0  0  0  0  0  0  0  0  0  0  0
   12.1898   -3.2774    0.5157 H   0  0  0  0  0  0  0  0  0  0  0  0
   12.6298   -1.3366    2.0244 H   0  0  0  0  0  0  0  0  0  0  0  0
   11.0370    0.6271    3.5269 H   0  0  0  0  0  0  0  0  0  0  0  0
    9.3570    0.0778    5.3594 H   0  0  0  0  0  0  0  0  0  0  0  0
    7.6312   -1.6709    4.1561 H   0  0  0  0  0  0  0  0  0  0  0  0
    4.9757   -0.1450    1.0904 H   0  0  0  0  0  0  0  0  0  0  0  0
    4.8784    0.4434   -1.1972 H   0  0  0  0  0  0  0  0  0  0  0  0
    5.7081    2.5640   -2.1426 H   0  0  0  0  0  0  0  0  0  0  0  0
    3.7951    7.0513   -2.1736 H   0  0  0  0  0  0  0  0  0  0  0  0
    4.5373    5.2837    0.2285 H   0  0  0  0  0  0  0  0  0  0  0  0
    1.7744    7.2785   -0.6955 H   0  0  0  0  0  0  0  0  0  0  0  0
    0.4640    8.5652    0.9328 H   0  0  0  0  0  0  0  0  0  0  0  0
    1.4462    9.1753    3.1261 H   0  0  0  0  0  0  0  0  0  0  0  0
    3.7830    8.5365    3.6499 H   0  0  0  0  0  0  0  0  0  0  0  0
    5.1145    7.2205    2.0415 H   0  0  0  0  0  0  0  0  0  0  0  0
    0.7608    4.3699   -2.2902 H   0  0  0  0  0  0  0  0  0  0  0  0
    1.0414    2.2457   -0.3395 H   0  0  0  0  0  0  0  0  0  0  0  0
  1  2  2  0  0  0  0
  2  3  1  0  0  0  0
  2 21  1  0  0  0  0
  3  4  1  0  0  0  0
  3 20  2  0  0  0  0
  4  5  2  0  0  0  0
  4 38  1  0  0  0  0
  5  6  1  0  0  0  0
  5 39  1  0  0  0  0
  6  7  2  0  0  0  0
  6 40  1  0  0  0  0
  7  8  1  0  0  0  0
  7 20  1  0  0  0  0
  8  9  1  0  0  0  0
  8 41  1  0  0  0  0
  9 10  2  0  0  0  0
  9 11  1  0  0  0  0
 11 12  1  0  0  0  0
 11 19  2  0  0  0  0
 12 13  2  0  0  0  0
 12 42  1  0  0  0  0
 13 14  1  0  0  0  0
 13 43  1  0  0  0  0
 14 15  2  0  0  0  0
 14 44  1  0  0  0  0
 15 16  1  0  0  0  0
 15 19  1  0  0  0  0
 16 17  1  0  0  0  0
 16 45  1  0  0  0  0
 17 18  2  0  0  0  0
 17 46  1  0  0  0  0
 18 19  1  0  0  0  0
 18 47  1  0  0  0  0
 20 48  1  0  0  0  0
 21 22  1  0  0  0  0
 21 37  2  0  0  0  0
 22 23  2  0  0  0  0
 22 49  1  0  0  0  0
 23 24  1  0  0  0  0
 23 50  1  0  0  0  0
 24 25  1  0  0  0  0
 24 36  2  0  0  0  0
 25 26  1  0  0  0  0
 25 34  2  0  0  0  0
 26 27  2  0  0  0  0
 26 51  1  0  0  0  0
 27 28  1  0  0  0  0
 27 52  1  0  0  0  0
 28 29  1  0  0  0  0
 28 33  2  0  0  0  0
 29 30  2  0  0  0  0
 29 53  1  0  0  0  0
 30 31  1  0  0  0  0
 30 54  1  0  0  0  0
 31 32  2  0  0  0  0
 31 55  1  0  0  0  0
 32 33  1  0  0  0  0
 32 56  1  0  0  0  0
 33 57  1  0  0  0  0
 34 35  1  0  0  0  0
 35 36  1  0  0  0  0
 35 58  1  0  0  0  0
 36 37  1  0  0  0  0
 37 59  1  0  0  0  0
M  END
$$$$
