CHEMBL207772
 OpenBabel04072215363D

 47 50  0  0  0  0  0  0  0  0999 V2000
    8.2957    5.4282    5.4023 F   0  0  0  0  0  0  0  0  0  0  0  0
    9.3481    6.1818    5.7859 C   0  0  0  0  0  0  0  0  0  0  0  0
    9.1614    7.4449    5.3489 F   0  0  0  0  0  0  0  0  0  0  0  0
    9.3567    6.2000    7.1395 F   0  0  0  0  0  0  0  0  0  0  0  0
   10.6074    5.6980    5.3362 O   0  0  0  0  0  0  0  0  0  0  0  0
   10.6512    4.7509    4.3600 C   0  0  0  0  0  0  0  0  0  0  0  0
    9.6898    4.5446    3.3762 C   0  0  0  0  0  0  0  0  0  0  0  0
    9.8217    3.4795    2.4793 C   0  0  0  0  0  0  0  0  0  0  0  0
   10.9447    2.6416    2.5121 C   0  0  0  0  0  0  0  0  0  0  0  0
   11.0776    1.5230    1.6655 N   0  0  0  0  0  0  0  0  0  0  0  0
   10.6128    1.5002    0.4011 C   0  0  0  0  0  0  0  0  0  0  0  0
   10.0830    0.5144   -0.2883 N   0  0  0  0  0  0  0  0  0  0  0  0
    9.8543    1.0100   -1.5581 N   0  0  0  0  0  0  0  0  0  0  0  0
   10.2854    2.2549   -1.5600 C   0  0  0  0  0  0  0  0  0  0  0  0
   10.4316    3.1880   -2.6729 C   0  0  0  0  0  0  0  0  0  0  0  0
   10.2270    2.6532   -3.9524 C   0  0  0  0  0  0  0  0  0  0  0  0
   10.3992    3.3170   -5.1204 N   0  0  0  0  0  0  0  0  0  0  0  0
   10.8136    4.5870   -5.0219 C   0  0  0  0  0  0  0  0  0  0  0  0
   11.0313    5.2241   -3.8162 C   0  0  0  0  0  0  0  0  0  0  0  0
   10.8096    4.5535   -2.5975 C   0  0  0  0  0  0  0  0  0  0  0  0
   11.0567    5.2936   -1.2859 C   0  0  0  0  0  0  0  0  0  0  0  0
   10.8558    6.8239   -1.3473 C   0  0  0  0  0  0  0  0  0  0  0  0
   11.1007    7.5398   -0.0431 C   0  0  0  0  0  0  0  0  0  0  0  0
   12.3892    7.6215    0.4922 C   0  0  0  0  0  0  0  0  0  0  0  0
   12.5806    8.3397    1.6624 C   0  0  0  0  0  0  0  0  0  0  0  0
   11.5914    8.9762    2.3232 N   0  0  0  0  0  0  0  0  0  0  0  0
   10.3560    8.8941    1.7861 C   0  0  0  0  0  0  0  0  0  0  0  0
   10.0639    8.1996    0.6213 C   0  0  0  0  0  0  0  0  0  0  0  0
   10.7669    2.6347   -0.3425 O   0  0  0  0  0  0  0  0  0  0  0  0
   11.9320    2.8888    3.4692 C   0  0  0  0  0  0  0  0  0  0  0  0
   11.7920    3.9454    4.3733 C   0  0  0  0  0  0  0  0  0  0  0  0
    8.8157    5.1816    3.2799 H   0  0  0  0  0  0  0  0  0  0  0  0
    9.0203    3.3047    1.7647 H   0  0  0  0  0  0  0  0  0  0  0  0
   10.9743    0.6513    2.1742 H   0  0  0  0  0  0  0  0  0  0  0  0
    9.9262    1.6141   -4.0844 H   0  0  0  0  0  0  0  0  0  0  0  0
   10.9836    5.1014   -5.9654 H   0  0  0  0  0  0  0  0  0  0  0  0
   11.3812    6.2534   -3.8559 H   0  0  0  0  0  0  0  0  0  0  0  0
   12.0782    5.0627   -0.9590 H   0  0  0  0  0  0  0  0  0  0  0  0
   10.3690    4.9256   -0.5173 H   0  0  0  0  0  0  0  0  0  0  0  0
    9.8382    7.0360   -1.7011 H   0  0  0  0  0  0  0  0  0  0  0  0
   11.5341    7.2829   -2.0753 H   0  0  0  0  0  0  0  0  0  0  0  0
   13.2370    7.1551    0.0016 H   0  0  0  0  0  0  0  0  0  0  0  0
   13.5679    8.4324    2.1054 H   0  0  0  0  0  0  0  0  0  0  0  0
    9.5809    9.4274    2.3293 H   0  0  0  0  0  0  0  0  0  0  0  0
    9.0492    8.1959    0.2373 H   0  0  0  0  0  0  0  0  0  0  0  0
   12.8256    2.2712    3.5045 H   0  0  0  0  0  0  0  0  0  0  0  0
   12.5789    4.1299    5.1026 H   0  0  0  0  0  0  0  0  0  0  0  0
  1  2  1  0  0  0  0
  2  3  1  0  0  0  0
  2  4  1  0  0  0  0
  2  5  1  0  0  0  0
  5  6  1  0  0  0  0
  6  7  1  0  0  0  0
  6 31  2  0  0  0  0
  7  8  2  0  0  0  0
  7 32  1  0  0  0  0
  8  9  1  0  0  0  0
  8 33  1  0  0  0  0
  9 10  1  0  0  0  0
  9 30  2  0  0  0  0
 10 11  1  0  0  0  0
 10 34  1  0  0  0  0
 11 12  2  0  0  0  0
 11 29  1  0  0  0  0
 12 13  1  0  0  0  0
 13 14  2  0  0  0  0
 14 15  1  0  0  0  0
 14 29  1  0  0  0  0
 15 16  1  0  0  0  0
 15 20  2  0  0  0  0
 16 17  2  0  0  0  0
 16 35  1  0  0  0  0
 17 18  1  0  0  0  0
 18 19  2  0  0  0  0
 18 36  1  0  0  0  0
 19 20  1  0  0  0  0
 19 37  1  0  0  0  0
 20 21  1  0  0  0  0
 21 22  1  0  0  0  0
 21 38  1  0  0  0  0
 21 39  1  0  0  0  0
 22 23  1  0  0  0  0
 22 40  1  0  0  0  0
 22 41  1  0  0  0  0
 23 24  1  0  0  0  0
 23 28  2  0  0  0  0
 24 25  2  0  0  0  0
 24 42  1  0  0  0  0
 25 26  1  0  0  0  0
 25 43  1  0  0  0  0
 26 27  2  0  0  0  0
 27 28  1  0  0  0  0
 27 44  1  0  0  0  0
 28 45  1  0  0  0  0
 30 31  1  0  0  0  0
 30 46  1  0  0  0  0
 31 47  1  0  0  0  0
M  END
$$$$
