CHEMBL458531
 OpenBabel04072215383D

 45 48  0  0  0  0  0  0  0  0999 V2000
    1.2659   -0.5866   -0.4515 O   0  0  0  0  0  0  0  0  0  0  0  0
    2.2271    0.0575   -0.0316 C   0  0  0  0  0  0  0  0  0  0  0  0
    2.7563    1.1674   -0.6851 N   0  0  0  0  0  0  0  0  0  0  0  0
    2.1944    1.6185   -1.9001 C   0  0  0  0  0  0  0  0  0  0  0  0
    0.8893    1.2420   -2.2342 C   0  0  0  0  0  0  0  0  0  0  0  0
    0.2914    1.6758   -3.4127 C   0  0  0  0  0  0  0  0  0  0  0  0
    0.9889    2.5132   -4.2702 C   0  0  0  0  0  0  0  0  0  0  0  0
    2.2739    2.9598   -3.9275 C   0  0  0  0  0  0  0  0  0  0  0  0
    2.9175    4.0452   -4.7526 C   0  0  0  0  0  0  0  0  0  0  0  0
    2.1022    4.4506   -5.7665 F   0  0  0  0  0  0  0  0  0  0  0  0
    3.2227    5.1618   -4.0412 F   0  0  0  0  0  0  0  0  0  0  0  0
    4.0771    3.6520   -5.3540 F   0  0  0  0  0  0  0  0  0  0  0  0
    2.8968    2.4685   -2.7581 C   0  0  0  0  0  0  0  0  0  0  0  0
    2.9615   -0.4457    1.1280 C   0  0  0  0  0  0  0  0  0  0  0  0
    4.0127    0.2336    1.6084 N   0  0  0  0  0  0  0  0  0  0  0  0
    4.4385   -0.4343    3.0595 S   0  0  0  0  0  0  0  0  0  0  0  0
    3.2854   -1.7415    2.9978 C   0  0  0  0  0  0  0  0  0  0  0  0
    2.5171   -1.6653    1.8391 C   0  0  0  0  0  0  0  0  0  0  0  0
    1.4837   -2.4907    1.2952 N   0  0  0  0  0  0  0  0  0  0  0  0
    0.4953   -3.3312    2.0066 C   0  0  0  0  0  0  0  0  0  0  0  0
    0.6146   -4.6012    3.0367 C   0  0  0  0  0  0  0  0  0  0  0  0
    0.2270   -5.1171    4.5950 C   0  0  0  0  0  0  0  0  0  0  0  0
    0.5610   -6.3210    5.2216 C   0  0  0  0  0  0  0  0  0  0  0  0
    1.1307   -6.4798    4.1026 N   0  0  0  0  0  0  0  0  0  0  0  0
    1.7200   -6.6950    2.9885 C   0  0  0  0  0  0  0  0  0  0  0  0
    2.3844   -7.8428    2.7397 C   0  0  0  0  0  0  0  0  0  0  0  0
    2.8118   -7.9789    1.4577 C   0  0  0  0  0  0  0  0  0  0  0  0
    2.5470   -6.9602    0.5227 C   0  0  0  0  0  0  0  0  0  0  0  0
    1.8317   -5.7952    0.8838 C   0  0  0  0  0  0  0  0  0  0  0  0
    1.3872   -5.6292    2.2288 C   0  0  0  0  0  0  0  0  0  0  0  0
    3.6767    1.4843   -0.4046 H   0  0  0  0  0  0  0  0  0  0  0  0
    0.3074    0.6228   -1.5560 H   0  0  0  0  0  0  0  0  0  0  0  0
   -0.7309    1.3870   -3.6370 H   0  0  0  0  0  0  0  0  0  0  0  0
    0.5120    2.8469   -5.1911 H   0  0  0  0  0  0  0  0  0  0  0  0
    3.9353    2.7295   -2.5608 H   0  0  0  0  0  0  0  0  0  0  0  0
    3.3108   -2.4087    3.8454 H   0  0  0  0  0  0  0  0  0  0  0  0
    1.2097   -2.2754    0.3362 H   0  0  0  0  0  0  0  0  0  0  0  0
   -0.1253   -3.7414    1.1931 H   0  0  0  0  0  0  0  0  0  0  0  0
   -0.1434   -2.6133    2.5382 H   0  0  0  0  0  0  0  0  0  0  0  0
   -0.3910   -4.5603    5.3046 H   0  0  0  0  0  0  0  0  0  0  0  0
    0.9012   -7.2958    5.5624 H   0  0  0  0  0  0  0  0  0  0  0  0
    2.4695   -8.5460    3.5555 H   0  0  0  0  0  0  0  0  0  0  0  0
    3.3113   -8.9021    1.2128 H   0  0  0  0  0  0  0  0  0  0  0  0
    2.8872   -7.0963   -0.4978 H   0  0  0  0  0  0  0  0  0  0  0  0
    1.5886   -5.0648    0.1133 H   0  0  0  0  0  0  0  0  0  0  0  0
  1  2  2  0  0  0  0
  2  3  1  0  0  0  0
  2 14  1  0  0  0  0
  3  4  1  0  0  0  0
  3 31  1  0  0  0  0
  4  5  1  0  0  0  0
  4 13  2  0  0  0  0
  5  6  2  0  0  0  0
  5 32  1  0  0  0  0
  6  7  1  0  0  0  0
  6 33  1  0  0  0  0
  7  8  2  0  0  0  0
  7 34  1  0  0  0  0
  8  9  1  0  0  0  0
  8 13  1  0  0  0  0
  9 10  1  0  0  0  0
  9 11  1  0  0  0  0
  9 12  1  0  0  0  0
 13 35  1  0  0  0  0
 14 15  2  0  0  0  0
 14 18  1  0  0  0  0
 15 16  1  0  0  0  0
 16 17  1  0  0  0  0
 17 18  2  0  0  0  0
 17 36  1  0  0  0  0
 18 19  1  0  0  0  0
 19 20  1  0  0  0  0
 19 37  1  0  0  0  0
 20 21  1  0  0  0  0
 20 38  1  0  0  0  0
 20 39  1  0  0  0  0
 21 22  1  0  0  0  0
 21 30  2  0  0  0  0
 22 23  2  0  0  0  0
 22 40  1  0  0  0  0
 23 24  1  0  0  0  0
 23 41  1  0  0  0  0
 24 25  2  0  0  0  0
 25 26  1  0  0  0  0
 25 30  1  0  0  0  0
 26 27  2  0  0  0  0
 26 42  1  0  0  0  0
 27 28  1  0  0  0  0
 27 43  1  0  0  0  0
 28 29  2  0  0  0  0
 28 44  1  0  0  0  0
 29 30  1  0  0  0  0
 29 45  1  0  0  0  0
M  END
$$$$
