CHEMBL74550
 OpenBabel04072215383D

 39 42  0  0  0  0  0  0  0  0999 V2000
    1.6121   -2.9276    4.7076 Cl  0  0  0  0  0  0  0  0  0  0  0  0
    2.2658   -2.0621    3.3730 C   0  0  0  0  0  0  0  0  0  0  0  0
    1.5913   -2.0504    2.1546 C   0  0  0  0  0  0  0  0  0  0  0  0
    2.1309   -1.3570    1.0650 C   0  0  0  0  0  0  0  0  0  0  0  0
    3.3348   -0.6493    1.1908 C   0  0  0  0  0  0  0  0  0  0  0  0
    3.8917    0.0057    0.0704 N   0  0  0  0  0  0  0  0  0  0  0  0
    4.6188    1.2266    0.0961 C   0  0  0  0  0  0  0  0  0  0  0  0
    4.5121    2.0450    1.1656 N   0  0  0  0  0  0  0  0  0  0  0  0
    5.1712    3.2412    1.2124 N   0  0  0  0  0  0  0  0  0  0  0  0
    5.9708    3.6220    0.1931 C   0  0  0  0  0  0  0  0  0  0  0  0
    6.6290    4.9698    0.3684 C   0  0  0  0  0  0  0  0  0  0  0  0
    7.9768    4.9298    1.0497 C   0  0  0  0  0  0  0  0  0  0  0  0
    9.1336    5.3612    0.3920 C   0  0  0  0  0  0  0  0  0  0  0  0
   10.3392    5.3342    1.0777 C   0  0  0  0  0  0  0  0  0  0  0  0
   10.4708    4.9160    2.3538 N   0  0  0  0  0  0  0  0  0  0  0  0
    9.3445    4.5081    2.9751 C   0  0  0  0  0  0  0  0  0  0  0  0
    8.0944    4.4982    2.3760 C   0  0  0  0  0  0  0  0  0  0  0  0
    6.1437    2.8010   -0.9344 C   0  0  0  0  0  0  0  0  0  0  0  0
    6.9736    3.1058   -2.0229 C   0  0  0  0  0  0  0  0  0  0  0  0
    7.1288    2.3380   -3.1261 N   0  0  0  0  0  0  0  0  0  0  0  0
    6.4419    1.1841   -3.1586 C   0  0  0  0  0  0  0  0  0  0  0  0
    5.6064    0.7658   -2.1382 C   0  0  0  0  0  0  0  0  0  0  0  0
    5.4384    1.5795   -0.9955 C   0  0  0  0  0  0  0  0  0  0  0  0
    4.0035   -0.6868    2.4236 C   0  0  0  0  0  0  0  0  0  0  0  0
    3.4723   -1.3848    3.5117 C   0  0  0  0  0  0  0  0  0  0  0  0
    0.6484   -2.5795    2.0451 H   0  0  0  0  0  0  0  0  0  0  0  0
    1.5887   -1.3660    0.1230 H   0  0  0  0  0  0  0  0  0  0  0  0
    3.2758   -0.0028   -0.7352 H   0  0  0  0  0  0  0  0  0  0  0  0
    5.9681    5.6097    0.9695 H   0  0  0  0  0  0  0  0  0  0  0  0
    6.6969    5.4846   -0.5973 H   0  0  0  0  0  0  0  0  0  0  0  0
    9.1079    5.7268   -0.6285 H   0  0  0  0  0  0  0  0  0  0  0  0
   11.2596    5.6652    0.6043 H   0  0  0  0  0  0  0  0  0  0  0  0
    9.4739    4.1820    4.0033 H   0  0  0  0  0  0  0  0  0  0  0  0
    7.2293    4.1642    2.9421 H   0  0  0  0  0  0  0  0  0  0  0  0
    7.5723    4.0117   -2.0513 H   0  0  0  0  0  0  0  0  0  0  0  0
    6.5868    0.5799   -4.0502 H   0  0  0  0  0  0  0  0  0  0  0  0
    5.1056   -0.1925   -2.2340 H   0  0  0  0  0  0  0  0  0  0  0  0
    4.9562   -0.1776    2.5469 H   0  0  0  0  0  0  0  0  0  0  0  0
    4.0097   -1.3947    4.4556 H   0  0  0  0  0  0  0  0  0  0  0  0
  1  2  1  0  0  0  0
  2  3  1  0  0  0  0
  2 25  2  0  0  0  0
  3  4  2  0  0  0  0
  3 26  1  0  0  0  0
  4  5  1  0  0  0  0
  4 27  1  0  0  0  0
  5  6  1  0  0  0  0
  5 24  2  0  0  0  0
  6  7  1  0  0  0  0
  6 28  1  0  0  0  0
  7  8  1  0  0  0  0
  7 23  2  0  0  0  0
  8  9  2  0  0  0  0
  9 10  1  0  0  0  0
 10 11  1  0  0  0  0
 10 18  2  0  0  0  0
 11 12  1  0  0  0  0
 11 29  1  0  0  0  0
 11 30  1  0  0  0  0
 12 13  1  0  0  0  0
 12 17  2  0  0  0  0
 13 14  2  0  0  0  0
 13 31  1  0  0  0  0
 14 15  1  0  0  0  0
 14 32  1  0  0  0  0
 15 16  2  0  0  0  0
 16 17  1  0  0  0  0
 16 33  1  0  0  0  0
 17 34  1  0  0  0  0
 18 19  1  0  0  0  0
 18 23  1  0  0  0  0
 19 20  2  0  0  0  0
 19 35  1  0  0  0  0
 20 21  1  0  0  0  0
 21 22  2  0  0  0  0
 21 36  1  0  0  0  0
 22 23  1  0  0  0  0
 22 37  1  0  0  0  0
 24 25  1  0  0  0  0
 24 38  1  0  0  0  0
 25 39  1  0  0  0  0
M  END
$$$$
