CHEMBL271087
 OpenBabel04072215363D

 67 71  0  0  0  0  0  0  0  0999 V2000
    0.8185    0.1026    0.3087 C   0  0  0  0  0  0  0  0  0  0  0  0
    2.3342    0.0681    0.0979 C   0  0  0  0  0  0  0  0  0  0  0  0
    3.1376   -0.0107    1.3982 C   0  0  0  0  0  0  0  0  0  0  0  0
    2.7988   -0.9586   -0.9177 C   0  0  0  0  0  0  0  0  0  0  0  0
    2.6153   -2.3903   -0.8308 C   0  0  0  0  0  0  0  0  0  0  0  0
    1.9568   -3.2154    0.2368 C   0  0  0  0  0  0  0  0  0  0  0  0
    1.4413   -2.7160    1.3442 N   0  0  0  0  0  0  0  0  0  0  0  0
    0.8260   -3.7439    2.0104 N   0  0  0  0  0  0  0  0  0  0  0  0
    1.0465   -4.8239    1.3023 C   0  0  0  0  0  0  0  0  0  0  0  0
    0.6267   -6.0851    1.4808 N   0  0  0  0  0  0  0  0  0  0  0  0
   -0.6399   -6.3237    2.1699 C   0  0  0  0  0  0  0  0  0  0  0  0
   -1.8461   -6.4592    1.1801 C   0  0  0  0  0  0  0  0  0  0  0  0
   -1.6320   -7.6440    0.2239 C   0  0  0  0  0  0  0  0  0  0  0  0
   -3.1418   -6.6907    1.9736 C   0  0  0  0  0  0  0  0  0  0  0  0
   -2.0391   -5.2481    0.3607 N   0  0  0  0  0  0  0  0  0  0  0  0
    1.7731   -4.5800    0.1720 O   0  0  0  0  0  0  0  0  0  0  0  0
    3.1538   -2.9498   -1.9659 C   0  0  0  0  0  0  0  0  0  0  0  0
    3.6511   -1.9468   -2.7428 N   0  0  0  0  0  0  0  0  0  0  0  0
    4.1990   -2.1368   -3.9504 N   0  0  0  0  0  0  0  0  0  0  0  0
    4.6314   -1.0535   -4.5033 C   0  0  0  0  0  0  0  0  0  0  0  0
    4.6107    0.1967   -3.9588 N   0  0  0  0  0  0  0  0  0  0  0  0
    4.0931    0.4105   -2.7849 C   0  0  0  0  0  0  0  0  0  0  0  0
    4.1422    1.6696   -2.2164 N   0  0  0  0  0  0  0  0  0  0  0  0
    5.0277    2.7364   -2.5012 C   0  0  0  0  0  0  0  0  0  0  0  0
    5.6984    2.9238   -3.7129 C   0  0  0  0  0  0  0  0  0  0  0  0
    6.5963    3.9946   -3.8966 C   0  0  0  0  0  0  0  0  0  0  0  0
    7.2762    4.1130   -5.2173 C   0  0  0  0  0  0  0  0  0  0  0  0
    7.0394    3.2871   -6.0951 O   0  0  0  0  0  0  0  0  0  0  0  0
    8.1466    5.1696   -5.4020 N   0  0  0  0  0  0  0  0  0  0  0  0
    8.7938    5.3910   -6.6558 C   0  0  0  0  0  0  0  0  0  0  0  0
   10.1441    4.7908   -6.9308 C   0  0  0  0  0  0  0  0  0  0  0  0
   10.0034    6.2756   -6.7651 C   0  0  0  0  0  0  0  0  0  0  0  0
    6.8029    4.8928   -2.8476 C   0  0  0  0  0  0  0  0  0  0  0  0
    7.6574    5.9198   -2.9707 F   0  0  0  0  0  0  0  0  0  0  0  0
    6.1231    4.7534   -1.6444 C   0  0  0  0  0  0  0  0  0  0  0  0
    5.2424    3.6910   -1.4902 C   0  0  0  0  0  0  0  0  0  0  0  0
    4.5933    3.5534   -0.3225 F   0  0  0  0  0  0  0  0  0  0  0  0
    3.5081   -0.7388   -2.1105 C   0  0  0  0  0  0  0  0  0  0  0  0
    0.5475    0.9226    0.9825 H   0  0  0  0  0  0  0  0  0  0  0  0
    0.4006   -0.8066    0.7350 H   0  0  0  0  0  0  0  0  0  0  0  0
    0.3053    0.2708   -0.6449 H   0  0  0  0  0  0  0  0  0  0  0  0
    2.5261    1.0624   -0.2978 H   0  0  0  0  0  0  0  0  0  0  0  0
    3.0274   -0.9671    1.9136 H   0  0  0  0  0  0  0  0  0  0  0  0
    2.8346    0.7778    2.0941 H   0  0  0  0  0  0  0  0  0  0  0  0
    4.2076    0.1178    1.1938 H   0  0  0  0  0  0  0  0  0  0  0  0
    0.8649   -6.7473    0.7517 H   0  0  0  0  0  0  0  0  0  0  0  0
   -0.8466   -5.5306    2.9042 H   0  0  0  0  0  0  0  0  0  0  0  0
   -0.5403   -7.2498    2.7472 H   0  0  0  0  0  0  0  0  0  0  0  0
   -1.5039   -8.5779    0.7828 H   0  0  0  0  0  0  0  0  0  0  0  0
   -0.7467   -7.5095   -0.4069 H   0  0  0  0  0  0  0  0  0  0  0  0
   -2.4875   -7.7750   -0.4487 H   0  0  0  0  0  0  0  0  0  0  0  0
   -3.0777   -7.6054    2.5740 H   0  0  0  0  0  0  0  0  0  0  0  0
   -4.0053   -6.7988    1.3054 H   0  0  0  0  0  0  0  0  0  0  0  0
   -3.3527   -5.8586    2.6551 H   0  0  0  0  0  0  0  0  0  0  0  0
   -1.1856   -5.0577   -0.1645 H   0  0  0  0  0  0  0  0  0  0  0  0
   -2.1552   -4.4383    0.9734 H   0  0  0  0  0  0  0  0  0  0  0  0
    3.2220   -3.9756   -2.3009 H   0  0  0  0  0  0  0  0  0  0  0  0
    5.0827   -1.1270   -5.5081 H   0  0  0  0  0  0  0  0  0  0  0  0
    3.8485    1.7279   -1.2536 H   0  0  0  0  0  0  0  0  0  0  0  0
    5.5354    2.2443   -4.5455 H   0  0  0  0  0  0  0  0  0  0  0  0
    8.2995    5.8369   -4.6529 H   0  0  0  0  0  0  0  0  0  0  0  0
    8.0947    5.4170   -7.4899 H   0  0  0  0  0  0  0  0  0  0  0  0
   10.3166    4.3939   -7.9246 H   0  0  0  0  0  0  0  0  0  0  0  0
   10.6259    4.2283   -6.1401 H   0  0  0  0  0  0  0  0  0  0  0  0
   10.0955    6.8931   -7.6515 H   0  0  0  0  0  0  0  0  0  0  0  0
   10.4096    6.7230   -5.8667 H   0  0  0  0  0  0  0  0  0  0  0  0
    6.2810    5.4560   -0.8340 H   0  0  0  0  0  0  0  0  0  0  0  0
  1  2  1  0  0  0  0
  1 39  1  0  0  0  0
  1 40  1  0  0  0  0
  1 41  1  0  0  0  0
  2  3  1  0  0  0  0
  2  4  1  0  0  0  0
  2 42  1  0  0  0  0
  3 43  1  0  0  0  0
  3 44  1  0  0  0  0
  3 45  1  0  0  0  0
  4  5  1  0  0  0  0
  4 38  2  0  0  0  0
  5  6  1  0  0  0  0
  5 17  2  0  0  0  0
  6  7  2  0  0  0  0
  6 16  1  0  0  0  0
  7  8  1  0  0  0  0
  8  9  2  0  0  0  0
  9 10  1  0  0  0  0
  9 16  1  0  0  0  0
 10 11  1  0  0  0  0
 10 46  1  0  0  0  0
 11 12  1  0  0  0  0
 11 47  1  0  0  0  0
 11 48  1  0  0  0  0
 12 13  1  0  0  0  0
 12 14  1  0  0  0  0
 12 15  1  0  0  0  0
 13 49  1  0  0  0  0
 13 50  1  0  0  0  0
 13 51  1  0  0  0  0
 14 52  1  0  0  0  0
 14 53  1  0  0  0  0
 14 54  1  0  0  0  0
 15 55  1  0  0  0  0
 15 56  1  0  0  0  0
 17 18  1  0  0  0  0
 17 57  1  0  0  0  0
 18 19  1  0  0  0  0
 18 38  1  0  0  0  0
 19 20  2  0  0  0  0
 20 21  1  0  0  0  0
 20 58  1  0  0  0  0
 21 22  2  0  0  0  0
 22 23  1  0  0  0  0
 22 38  1  0  0  0  0
 23 24  1  0  0  0  0
 23 59  1  0  0  0  0
 24 25  1  0  0  0  0
 24 36  2  0  0  0  0
 25 26  2  0  0  0  0
 25 60  1  0  0  0  0
 26 27  1  0  0  0  0
 26 33  1  0  0  0  0
 27 28  2  0  0  0  0
 27 29  1  0  0  0  0
 29 30  1  0  0  0  0
 29 61  1  0  0  0  0
 30 31  1  0  0  0  0
 30 32  1  0  0  0  0
 30 62  1  0  0  0  0
 31 32  1  0  0  0  0
 31 63  1  0  0  0  0
 31 64  1  0  0  0  0
 32 65  1  0  0  0  0
 32 66  1  0  0  0  0
 33 34  1  0  0  0  0
 33 35  2  0  0  0  0
 35 36  1  0  0  0  0
 35 67  1  0  0  0  0
 36 37  1  0  0  0  0
M  END
$$$$
