CHEMBL1681937
 OpenBabel04072215363D

 46 47  0  0  0  0  0  0  0  0999 V2000
   10.3428   -2.1559    6.6514 C   0  0  0  0  0  0  0  0  0  0  0  0
    9.5511   -1.2143    5.9321 O   0  0  0  0  0  0  0  0  0  0  0  0
    8.4796   -1.9020    5.3474 N   0  0  0  0  0  0  0  0  0  0  0  0
    7.7186   -1.0650    4.7116 C   0  0  0  0  0  0  0  0  0  0  0  0
    6.4975   -1.5111    4.0230 C   0  0  0  0  0  0  0  0  0  0  0  0
    5.8229   -2.6723    4.3858 C   0  0  0  0  0  0  0  0  0  0  0  0
    6.1946   -3.4580    5.4746 N   0  0  0  0  0  0  0  0  0  0  0  0
    4.6867   -3.0693    3.7879 N   0  0  0  0  0  0  0  0  0  0  0  0
    4.2365   -2.3058    2.7884 C   0  0  0  0  0  0  0  0  0  0  0  0
    4.8284   -1.2034    2.3243 N   0  0  0  0  0  0  0  0  0  0  0  0
    5.9469   -0.8020    2.9710 C   0  0  0  0  0  0  0  0  0  0  0  0
    6.5871    0.3535    2.5086 O   0  0  0  0  0  0  0  0  0  0  0  0
    5.8131    1.2498    1.7920 C   0  0  0  0  0  0  0  0  0  0  0  0
    4.5626    1.6527    2.2506 C   0  0  0  0  0  0  0  0  0  0  0  0
    3.7637    2.4941    1.4759 C   0  0  0  0  0  0  0  0  0  0  0  0
    4.1984    2.9784    0.2394 C   0  0  0  0  0  0  0  0  0  0  0  0
    3.3448    3.7685   -0.5842 N   0  0  0  0  0  0  0  0  0  0  0  0
    1.9716    3.7997   -0.4581 C   0  0  0  0  0  0  0  0  0  0  0  0
    1.3122    3.1275    0.3236 O   0  0  0  0  0  0  0  0  0  0  0  0
    1.3450    4.7034   -1.2991 N   0  0  0  0  0  0  0  0  0  0  0  0
   -0.1103    4.7276   -1.2138 C   0  0  0  0  0  0  0  0  0  0  0  0
   -0.8044    5.7400   -2.1070 C   0  0  0  0  0  0  0  0  0  0  0  0
   -0.4707    7.1788   -1.7514 C   0  0  0  0  0  0  0  0  0  0  0  0
   -1.2356    8.0579   -2.5684 O   0  0  0  0  0  0  0  0  0  0  0  0
    5.5081    2.6560   -0.1650 C   0  0  0  0  0  0  0  0  0  0  0  0
    6.1563    3.2764   -1.6453 Cl  0  0  0  0  0  0  0  0  0  0  0  0
    6.3115    1.7920    0.6079 C   0  0  0  0  0  0  0  0  0  0  0  0
   11.2264   -1.6440    7.0410 H   0  0  0  0  0  0  0  0  0  0  0  0
   10.6680   -2.9639    5.9881 H   0  0  0  0  0  0  0  0  0  0  0  0
    9.7741   -2.5684    7.4913 H   0  0  0  0  0  0  0  0  0  0  0  0
    7.9696    0.0098    4.6672 H   0  0  0  0  0  0  0  0  0  0  0  0
    7.2056   -3.5824    5.5266 H   0  0  0  0  0  0  0  0  0  0  0  0
    5.6609   -4.3204    5.4745 H   0  0  0  0  0  0  0  0  0  0  0  0
    3.3031   -2.6008    2.3215 H   0  0  0  0  0  0  0  0  0  0  0  0
    4.1604    1.2803    3.1901 H   0  0  0  0  0  0  0  0  0  0  0  0
    2.7903    2.7449    1.8816 H   0  0  0  0  0  0  0  0  0  0  0  0
    3.7603    4.1707   -1.4151 H   0  0  0  0  0  0  0  0  0  0  0  0
    1.7719    4.8420   -2.2030 H   0  0  0  0  0  0  0  0  0  0  0  0
   -0.3851    4.9090   -0.1666 H   0  0  0  0  0  0  0  0  0  0  0  0
   -0.4693    3.7234   -1.4693 H   0  0  0  0  0  0  0  0  0  0  0  0
   -1.8894    5.6003   -2.0118 H   0  0  0  0  0  0  0  0  0  0  0  0
   -0.5713    5.5478   -3.1605 H   0  0  0  0  0  0  0  0  0  0  0  0
    0.5896    7.3961   -1.9092 H   0  0  0  0  0  0  0  0  0  0  0  0
   -0.7174    7.3936   -0.7070 H   0  0  0  0  0  0  0  0  0  0  0  0
   -1.0076    7.8773   -3.4961 H   0  0  0  0  0  0  0  0  0  0  0  0
    7.3080    1.5197    0.2643 H   0  0  0  0  0  0  0  0  0  0  0  0
  1  2  1  0  0  0  0
  1 28  1  0  0  0  0
  1 29  1  0  0  0  0
  1 30  1  0  0  0  0
  2  3  1  0  0  0  0
  3  4  2  0  0  0  0
  4  5  1  0  0  0  0
  4 31  1  0  0  0  0
  5  6  1  0  0  0  0
  5 11  2  0  0  0  0
  6  7  1  0  0  0  0
  6  8  2  0  0  0  0
  7 32  1  0  0  0  0
  7 33  1  0  0  0  0
  8  9  1  0  0  0  0
  9 10  2  0  0  0  0
  9 34  1  0  0  0  0
 10 11  1  0  0  0  0
 11 12  1  0  0  0  0
 12 13  1  0  0  0  0
 13 14  1  0  0  0  0
 13 27  2  0  0  0  0
 14 15  2  0  0  0  0
 14 35  1  0  0  0  0
 15 16  1  0  0  0  0
 15 36  1  0  0  0  0
 16 17  1  0  0  0  0
 16 25  2  0  0  0  0
 17 18  1  0  0  0  0
 17 37  1  0  0  0  0
 18 19  2  0  0  0  0
 18 20  1  0  0  0  0
 20 21  1  0  0  0  0
 20 38  1  0  0  0  0
 21 22  1  0  0  0  0
 21 39  1  0  0  0  0
 21 40  1  0  0  0  0
 22 23  1  0  0  0  0
 22 41  1  0  0  0  0
 22 42  1  0  0  0  0
 23 24  1  0  0  0  0
 23 43  1  0  0  0  0
 23 44  1  0  0  0  0
 24 45  1  0  0  0  0
 25 26  1  0  0  0  0
 25 27  1  0  0  0  0
 27 46  1  0  0  0  0
M  END
$$$$
