CHEMBL3918345
 OpenBabel04072215373D

 69 71  0  0  0  0  0  0  0  0999 V2000
   18.8587    2.3961    4.7258 C   0  0  0  0  0  0  0  0  0  0  0  0
   18.1123    1.2085    4.4482 O   0  0  0  0  0  0  0  0  0  0  0  0
   16.7878    1.4304    4.2109 C   0  0  0  0  0  0  0  0  0  0  0  0
   16.2479    2.5281    4.2279 O   0  0  0  0  0  0  0  0  0  0  0  0
   16.0896    0.1187    3.9278 C   0  0  0  0  0  0  0  0  0  0  0  0
   14.5989    0.3263    3.6488 C   0  0  0  0  0  0  0  0  0  0  0  0
   13.8754   -0.9916    3.3651 C   0  0  0  0  0  0  0  0  0  0  0  0
   12.3868   -0.7640    3.1041 C   0  0  0  0  0  0  0  0  0  0  0  0
   11.5293   -2.2926    2.7305 S   0  0  3  0  0  0  0  0  0  0  0  0
    9.8635   -1.7187    2.4454 C   0  0  0  0  0  0  0  0  0  0  0  0
   12.0470   -2.7575    1.4584 O   0  0  0  0  0  0  0  0  0  0  0  0
   11.5279   -3.1350    4.0229 N   0  0  0  0  0  0  0  0  0  0  0  0
   10.9995   -4.4410    4.0280 C   0  0  0  0  0  0  0  0  0  0  0  0
   10.1019   -4.7900    3.2712 O   0  0  0  0  0  0  0  0  0  0  0  0
   11.4435   -5.4306    5.0484 C   0  0  0  0  0  0  0  0  0  0  0  0
   10.8977   -6.7062    5.0555 C   0  0  0  0  0  0  0  0  0  0  0  0
   11.2019   -7.6571    5.9761 N   0  0  0  0  0  0  0  0  0  0  0  0
   12.0885   -7.3306    6.9376 C   0  0  0  0  0  0  0  0  0  0  0  0
   12.2876   -8.3048    7.9148 N   0  0  0  0  0  0  0  0  0  0  0  0
   12.7074   -6.0746    7.0004 C   0  0  0  0  0  0  0  0  0  0  0  0
   13.6732   -5.7702    8.0169 C   0  0  0  0  0  0  0  0  0  0  0  0
   14.4960   -5.5619    8.8688 C   0  0  0  0  0  0  0  0  0  0  0  0
   15.4908   -5.3180    9.8700 C   0  0  0  0  0  0  0  0  0  0  0  0
   15.7310   -4.0105   10.2906 C   0  0  0  0  0  0  0  0  0  0  0  0
   16.7153   -3.7602   11.2409 C   0  0  0  0  0  0  0  0  0  0  0  0
   17.4569   -4.8155   11.7768 C   0  0  0  0  0  0  0  0  0  0  0  0
   17.2192   -6.1338   11.3817 C   0  0  0  0  0  0  0  0  0  0  0  0
   17.9445   -7.2343   11.8973 N   0  0  0  0  0  0  0  0  0  0  0  0
   18.8250   -7.2093   12.9682 C   0  0  0  0  0  0  0  0  0  0  0  0
   19.0804   -6.2407   13.6776 O   0  0  0  0  0  0  0  0  0  0  0  0
   19.5303   -8.4764   13.2934 C   0  0  0  0  0  0  0  0  0  0  0  0
   20.7657   -8.4045   13.9655 C   0  0  0  0  0  0  0  0  0  0  0  0
   21.4594   -9.5731   14.3264 C   0  0  0  0  0  0  0  0  0  0  0  0
   22.8027   -9.5157   15.0189 C   0  0  0  0  0  0  0  0  0  0  0  0
   23.2704   -8.2527   15.2095 F   0  0  0  0  0  0  0  0  0  0  0  0
   22.7773  -10.0999   16.2479 F   0  0  0  0  0  0  0  0  0  0  0  0
   23.7684  -10.1697   14.3150 F   0  0  0  0  0  0  0  0  0  0  0  0
   20.8820  -10.8187   14.0293 C   0  0  0  0  0  0  0  0  0  0  0  0
   19.6552  -10.8930   13.3664 C   0  0  0  0  0  0  0  0  0  0  0  0
   18.9936   -9.7253   12.9936 C   0  0  0  0  0  0  0  0  0  0  0  0
   17.8242   -9.8360   12.3452 F   0  0  0  0  0  0  0  0  0  0  0  0
   16.2306   -6.3785   10.4158 C   0  0  0  0  0  0  0  0  0  0  0  0
   12.3809   -5.1172    6.0362 C   0  0  0  0  0  0  0  0  0  0  0  0
   19.9005    2.1122    4.9000 H   0  0  0  0  0  0  0  0  0  0  0  0
   18.4791    2.8862    5.6280 H   0  0  0  0  0  0  0  0  0  0  0  0
   18.8253    3.0790    3.8709 H   0  0  0  0  0  0  0  0  0  0  0  0
   16.2179   -0.5327    4.7994 H   0  0  0  0  0  0  0  0  0  0  0  0
   16.5699   -0.3456    3.0593 H   0  0  0  0  0  0  0  0  0  0  0  0
   14.4789    1.0023    2.7928 H   0  0  0  0  0  0  0  0  0  0  0  0
   14.1324    0.8228    4.5089 H   0  0  0  0  0  0  0  0  0  0  0  0
   14.0038   -1.6714    4.2156 H   0  0  0  0  0  0  0  0  0  0  0  0
   14.3326   -1.4822    2.4974 H   0  0  0  0  0  0  0  0  0  0  0  0
   12.2456   -0.1024    2.2423 H   0  0  0  0  0  0  0  0  0  0  0  0
   11.8989   -0.3130    3.9744 H   0  0  0  0  0  0  0  0  0  0  0  0
    9.8695   -1.0390    1.5903 H   0  0  0  0  0  0  0  0  0  0  0  0
    9.5025   -1.2021    3.3372 H   0  0  0  0  0  0  0  0  0  0  0  0
    9.2236   -2.5740    2.2203 H   0  0  0  0  0  0  0  0  0  0  0  0
   10.1683   -7.0195    4.3104 H   0  0  0  0  0  0  0  0  0  0  0  0
   11.8091   -9.1495    7.6182 H   0  0  0  0  0  0  0  0  0  0  0  0
   13.2657   -8.4489    8.1311 H   0  0  0  0  0  0  0  0  0  0  0  0
   15.1593   -3.1808    9.8827 H   0  0  0  0  0  0  0  0  0  0  0  0
   16.9180   -2.7448   11.5694 H   0  0  0  0  0  0  0  0  0  0  0  0
   18.2307   -4.5660   12.4956 H   0  0  0  0  0  0  0  0  0  0  0  0
   17.7581   -8.1335   11.4658 H   0  0  0  0  0  0  0  0  0  0  0  0
   21.1892   -7.4279   14.2051 H   0  0  0  0  0  0  0  0  0  0  0  0
   21.3921  -11.7376   14.3174 H   0  0  0  0  0  0  0  0  0  0  0  0
   19.2092  -11.8577   13.1404 H   0  0  0  0  0  0  0  0  0  0  0  0
   16.0193   -7.3939   10.0906 H   0  0  0  0  0  0  0  0  0  0  0  0
   12.8440   -4.1334    6.0597 H   0  0  0  0  0  0  0  0  0  0  0  0
  1  2  1  0  0  0  0
  1 44  1  0  0  0  0
  1 45  1  0  0  0  0
  1 46  1  0  0  0  0
  2  3  1  0  0  0  0
  3  4  2  0  0  0  0
  3  5  1  0  0  0  0
  5  6  1  0  0  0  0
  5 47  1  0  0  0  0
  5 48  1  0  0  0  0
  6  7  1  0  0  0  0
  6 49  1  0  0  0  0
  6 50  1  0  0  0  0
  7  8  1  0  0  0  0
  7 51  1  0  0  0  0
  7 52  1  0  0  0  0
  8  9  1  0  0  0  0
  8 53  1  0  0  0  0
  8 54  1  0  0  0  0
  9 10  1  0  0  0  0
  9 11  2  0  0  0  0
  9 12  2  0  0  0  0
 10 55  1  0  0  0  0
 10 56  1  0  0  0  0
 10 57  1  0  0  0  0
 12 13  1  0  0  0  0
 13 14  2  0  0  0  0
 13 15  1  0  0  0  0
 15 16  1  0  0  0  0
 15 43  2  0  0  0  0
 16 17  2  0  0  0  0
 16 58  1  0  0  0  0
 17 18  1  0  0  0  0
 18 19  1  0  0  0  0
 18 20  2  0  0  0  0
 19 59  1  0  0  0  0
 19 60  1  0  0  0  0
 20 21  1  0  0  0  0
 20 43  1  0  0  0  0
 21 22  3  0  0  0  0
 22 23  1  0  0  0  0
 23 24  1  0  0  0  0
 23 42  2  0  0  0  0
 24 25  2  0  0  0  0
 24 61  1  0  0  0  0
 25 26  1  0  0  0  0
 25 62  1  0  0  0  0
 26 27  2  0  0  0  0
 26 63  1  0  0  0  0
 27 28  1  0  0  0  0
 27 42  1  0  0  0  0
 28 29  1  0  0  0  0
 28 64  1  0  0  0  0
 29 30  2  0  0  0  0
 29 31  1  0  0  0  0
 31 32  1  0  0  0  0
 31 40  2  0  0  0  0
 32 33  2  0  0  0  0
 32 65  1  0  0  0  0
 33 34  1  0  0  0  0
 33 38  1  0  0  0  0
 34 35  1  0  0  0  0
 34 36  1  0  0  0  0
 34 37  1  0  0  0  0
 38 39  2  0  0  0  0
 38 66  1  0  0  0  0
 39 40  1  0  0  0  0
 39 67  1  0  0  0  0
 40 41  1  0  0  0  0
 42 68  1  0  0  0  0
 43 69  1  0  0  0  0
M  END
$$$$
