CHEMBL1970903
 OpenBabel04072215363D

 53 57  0  0  1  0  0  0  0  0999 V2000
   -2.2478    1.2829    1.7090 C   0  0  0  0  0  0  0  0  0  0  0  0
   -1.4348    0.2755    0.9855 C   0  0  0  0  0  0  0  0  0  0  0  0
   -1.9343   -0.9385    0.7163 N   0  0  0  0  0  0  0  0  0  0  0  0
   -0.9308   -1.5603    0.0721 N   0  0  0  0  0  0  0  0  0  0  0  0
    0.1977   -0.8005   -0.0790 C   0  0  0  0  0  0  0  0  0  0  0  0
    1.4329   -1.0699   -0.6670 C   0  0  0  0  0  0  0  0  0  0  0  0
    2.3913   -0.0443   -0.6347 C   0  0  0  0  0  0  0  0  0  0  0  0
    2.1396    1.2154   -0.0569 C   0  0  0  0  0  0  0  0  0  0  0  0
    3.1731    2.2756   -0.0304 C   0  0  0  0  0  0  0  0  0  0  0  0
    4.1238    2.4277   -1.0429 C   0  0  0  0  0  0  0  0  0  0  0  0
    5.0948    3.3724   -1.0653 N   0  0  0  0  0  0  0  0  0  0  0  0
    5.1214    4.2313   -0.0220 C   0  0  0  0  0  0  0  0  0  0  0  0
    4.2310    4.1960    1.0412 C   0  0  0  0  0  0  0  0  0  0  0  0
    4.3997    5.1448    2.0072 O   0  0  0  0  0  0  0  0  0  0  0  0
    3.4636    5.1341    3.0924 C   0  0  0  0  0  0  0  0  0  0  0  0
    3.7970    6.2978    4.0526 C   0  0  3  0  0  0  0  0  0  0  0  0
    3.7137    7.5833    3.3271 N   0  0  0  0  0  0  0  0  0  0  0  0
    2.8555    6.2355    5.2736 C   0  0  0  0  0  0  0  0  0  0  0  0
    3.1065    7.2980    6.2986 C   0  0  0  0  0  0  0  0  0  0  0  0
    2.5001    8.5387    6.3399 C   0  0  0  0  0  0  0  0  0  0  0  0
    2.9922    9.2248    7.4142 N   0  0  0  0  0  0  0  0  0  0  0  0
    3.9016    8.4521    8.0964 C   0  0  0  0  0  0  0  0  0  0  0  0
    4.6398    8.7423    9.2496 C   0  0  0  0  0  0  0  0  0  0  0  0
    5.5149    7.7609    9.7215 C   0  0  0  0  0  0  0  0  0  0  0  0
    5.6447    6.5406    9.0635 C   0  0  0  0  0  0  0  0  0  0  0  0
    4.8956    6.2655    7.9126 C   0  0  0  0  0  0  0  0  0  0  0  0
    4.0031    7.2382    7.4153 C   0  0  0  0  0  0  0  0  0  0  0  0
    3.2573    3.1987    1.0280 C   0  0  0  0  0  0  0  0  0  0  0  0
    0.8653    1.4359    0.5106 C   0  0  0  0  0  0  0  0  0  0  0  0
   -0.1062    0.4182    0.5087 C   0  0  0  0  0  0  0  0  0  0  0  0
   -3.2494    0.9063    1.9393 H   0  0  0  0  0  0  0  0  0  0  0  0
   -2.3567    2.1885    1.1035 H   0  0  0  0  0  0  0  0  0  0  0  0
   -1.7636    1.5562    2.6523 H   0  0  0  0  0  0  0  0  0  0  0  0
   -1.0789   -2.5128   -0.2386 H   0  0  0  0  0  0  0  0  0  0  0  0
    1.6570   -2.0288   -1.1230 H   0  0  0  0  0  0  0  0  0  0  0  0
    3.3664   -0.2626   -1.0689 H   0  0  0  0  0  0  0  0  0  0  0  0
    4.1343    1.7754   -1.9125 H   0  0  0  0  0  0  0  0  0  0  0  0
    5.9081    4.9796   -0.0621 H   0  0  0  0  0  0  0  0  0  0  0  0
    3.5402    4.1836    3.6345 H   0  0  0  0  0  0  0  0  0  0  0  0
    2.4428    5.2595    2.7075 H   0  0  0  0  0  0  0  0  0  0  0  0
    4.8368    6.1891    4.3851 H   0  0  0  0  0  0  0  0  0  0  0  0
    2.7609    7.7411    3.0055 H   0  0  0  0  0  0  0  0  0  0  0  0
    4.2900    7.5105    2.4864 H   0  0  0  0  0  0  0  0  0  0  0  0
    2.9524    5.2549    5.7537 H   0  0  0  0  0  0  0  0  0  0  0  0
    1.8103    6.3022    4.9409 H   0  0  0  0  0  0  0  0  0  0  0  0
    1.7801    8.9960    5.6756 H   0  0  0  0  0  0  0  0  0  0  0  0
    2.7368   10.1680    7.6690 H   0  0  0  0  0  0  0  0  0  0  0  0
    4.5425    9.6945    9.7602 H   0  0  0  0  0  0  0  0  0  0  0  0
    6.1053    7.9573   10.6140 H   0  0  0  0  0  0  0  0  0  0  0  0
    6.3358    5.7936    9.4450 H   0  0  0  0  0  0  0  0  0  0  0  0
    5.0093    5.3108    7.4085 H   0  0  0  0  0  0  0  0  0  0  0  0
    2.5555    3.1132    1.8499 H   0  0  0  0  0  0  0  0  0  0  0  0
    0.6053    2.3927    0.9528 H   0  0  0  0  0  0  0  0  0  0  0  0
  1  2  1  0  0  0  0
  1 31  1  0  0  0  0
  1 32  1  0  0  0  0
  1 33  1  0  0  0  0
  2  3  2  0  0  0  0
  2 30  1  0  0  0  0
  3  4  1  0  0  0  0
  4  5  1  0  0  0  0
  4 34  1  0  0  0  0
  5  6  1  0  0  0  0
  5 30  2  0  0  0  0
  6  7  2  0  0  0  0
  6 35  1  0  0  0  0
  7  8  1  0  0  0  0
  7 36  1  0  0  0  0
  8  9  1  0  0  0  0
  8 29  2  0  0  0  0
  9 10  1  0  0  0  0
  9 28  2  0  0  0  0
 10 11  2  0  0  0  0
 10 37  1  0  0  0  0
 11 12  1  0  0  0  0
 12 13  2  0  0  0  0
 12 38  1  0  0  0  0
 13 14  1  0  0  0  0
 13 28  1  0  0  0  0
 14 15  1  0  0  0  0
 15 16  1  0  0  0  0
 15 39  1  0  0  0  0
 15 40  1  0  0  0  0
 16 17  1  0  0  0  0
 16 18  1  0  0  0  0
 16 41  1  0  0  0  0
 17 42  1  0  0  0  0
 17 43  1  0  0  0  0
 18 19  1  0  0  0  0
 18 44  1  0  0  0  0
 18 45  1  0  0  0  0
 19 20  2  0  0  0  0
 19 27  1  0  0  0  0
 20 21  1  0  0  0  0
 20 46  1  0  0  0  0
 21 22  1  0  0  0  0
 21 47  1  0  0  0  0
 22 23  1  0  0  0  0
 22 27  2  0  0  0  0
 23 24  2  0  0  0  0
 23 48  1  0  0  0  0
 24 25  1  0  0  0  0
 24 49  1  0  0  0  0
 25 26  2  0  0  0  0
 25 50  1  0  0  0  0
 26 27  1  0  0  0  0
 26 51  1  0  0  0  0
 28 52  1  0  0  0  0
 29 30  1  0  0  0  0
 29 53  1  0  0  0  0
M  END
$$$$
