CHEMBL4448435
 OpenBabel04072215383D

 49 51  0  0  0  0  0  0  0  0999 V2000
    8.6823    8.9737   -1.3943 C   0  0  0  0  0  0  0  0  0  0  0  0
   10.0659    8.6853   -0.8401 C   0  0  0  0  0  0  0  0  0  0  0  0
    9.9131    7.7807    0.2595 O   0  0  0  0  0  0  0  0  0  0  0  0
    9.6579    8.3645    1.4542 C   0  0  0  0  0  0  0  0  0  0  0  0
    9.8378    9.5363    1.7432 O   0  0  0  0  0  0  0  0  0  0  0  0
    8.9723    7.3960    2.3457 C   0  0  0  0  0  0  0  0  0  0  0  0
    8.5839    7.8368    3.6107 C   0  0  0  0  0  0  0  0  0  0  0  0
    7.8577    6.9930    4.4521 C   0  0  0  0  0  0  0  0  0  0  0  0
    7.5159    5.6916    4.0640 C   0  0  0  0  0  0  0  0  0  0  0  0
    6.7563    4.8252    4.8719 N   0  0  0  0  0  0  0  0  0  0  0  0
    6.0434    5.1019    6.0551 C   0  0  0  0  0  0  0  0  0  0  0  0
    5.7869    4.0762    6.9399 C   0  0  0  0  0  0  0  0  0  0  0  0
    5.1514    4.4207    8.1101 C   0  0  0  0  0  0  0  0  0  0  0  0
    4.7694    5.6724    8.4071 N   0  0  0  0  0  0  0  0  0  0  0  0
    5.0111    6.5952    7.4697 C   0  0  0  0  0  0  0  0  0  0  0  0
    4.5433    8.2723    7.8173 S   0  0  0  0  0  0  0  0  0  0  0  0
    4.3183    8.8724    6.1088 C   0  0  0  0  0  0  0  0  0  0  0  0
    3.2263    8.1039    5.3811 C   0  0  0  0  0  0  0  0  0  0  0  0
    2.2403    7.6448    5.9601 O   0  0  0  0  0  0  0  0  0  0  0  0
    3.2987    7.9379    3.8940 C   0  0  0  0  0  0  0  0  0  0  0  0
    4.2565    8.5743    3.0918 C   0  0  0  0  0  0  0  0  0  0  0  0
    4.2634    8.3715    1.7041 C   0  0  0  0  0  0  0  0  0  0  0  0
    3.3040    7.5357    1.1144 C   0  0  0  0  0  0  0  0  0  0  0  0
    3.3165    7.3157   -0.3377 N   0  3  0  0  0  0  0  0  0  0  0  0
    4.1975    7.8843   -0.9977 O   0  0  0  0  0  0  0  0  0  0  0  0
    2.4505    6.5687   -0.8167 O   0  5  0  0  0  0  0  0  0  0  0  0
    2.3343    6.9082    1.9013 C   0  0  0  0  0  0  0  0  0  0  0  0
    2.3372    7.1122    3.2839 C   0  0  0  0  0  0  0  0  0  0  0  0
    5.6361    6.3565    6.3103 N   0  0  0  0  0  0  0  0  0  0  0  0
    7.8945    5.2666    2.7831 C   0  0  0  0  0  0  0  0  0  0  0  0
    8.6247    6.1041    1.9332 C   0  0  0  0  0  0  0  0  0  0  0  0
    8.7357    9.6223   -2.2724 H   0  0  0  0  0  0  0  0  0  0  0  0
    8.0517    9.4553   -0.6388 H   0  0  0  0  0  0  0  0  0  0  0  0
    8.1805    8.0403   -1.6695 H   0  0  0  0  0  0  0  0  0  0  0  0
   10.5869    9.6044   -0.5491 H   0  0  0  0  0  0  0  0  0  0  0  0
   10.6774    8.1840   -1.5968 H   0  0  0  0  0  0  0  0  0  0  0  0
    8.8338    8.8404    3.9498 H   0  0  0  0  0  0  0  0  0  0  0  0
    7.5888    7.3720    5.4335 H   0  0  0  0  0  0  0  0  0  0  0  0
    6.9670    3.8467    4.7249 H   0  0  0  0  0  0  0  0  0  0  0  0
    6.0858    3.0544    6.7516 H   0  0  0  0  0  0  0  0  0  0  0  0
    4.9336    3.6773    8.8711 H   0  0  0  0  0  0  0  0  0  0  0  0
    5.2804    8.8105    5.5970 H   0  0  0  0  0  0  0  0  0  0  0  0
    4.0187    9.9244    6.1489 H   0  0  0  0  0  0  0  0  0  0  0  0
    5.0083    9.2368    3.5093 H   0  0  0  0  0  0  0  0  0  0  0  0
    5.0187    8.8731    1.1014 H   0  0  0  0  0  0  0  0  0  0  0  0
    1.5743    6.2641    1.4634 H   0  0  0  0  0  0  0  0  0  0  0  0
    1.5765    6.6194    3.8897 H   0  0  0  0  0  0  0  0  0  0  0  0
    7.6105    4.2801    2.4234 H   0  0  0  0  0  0  0  0  0  0  0  0
    8.8948    5.7412    0.9439 H   0  0  0  0  0  0  0  0  0  0  0  0
  1  2  1  0  0  0  0
  1 32  1  0  0  0  0
  1 33  1  0  0  0  0
  1 34  1  0  0  0  0
  2  3  1  0  0  0  0
  2 35  1  0  0  0  0
  2 36  1  0  0  0  0
  3  4  1  0  0  0  0
  4  5  2  0  0  0  0
  4  6  1  0  0  0  0
  6  7  1  0  0  0  0
  6 31  2  0  0  0  0
  7  8  2  0  0  0  0
  7 37  1  0  0  0  0
  8  9  1  0  0  0  0
  8 38  1  0  0  0  0
  9 10  1  0  0  0  0
  9 30  2  0  0  0  0
 10 11  1  0  0  0  0
 10 39  1  0  0  0  0
 11 12  1  0  0  0  0
 11 29  2  0  0  0  0
 12 13  2  0  0  0  0
 12 40  1  0  0  0  0
 13 14  1  0  0  0  0
 13 41  1  0  0  0  0
 14 15  2  0  0  0  0
 15 16  1  0  0  0  0
 15 29  1  0  0  0  0
 16 17  1  0  0  0  0
 17 18  1  0  0  0  0
 17 42  1  0  0  0  0
 17 43  1  0  0  0  0
 18 19  2  0  0  0  0
 18 20  1  0  0  0  0
 20 21  1  0  0  0  0
 20 28  2  0  0  0  0
 21 22  2  0  0  0  0
 21 44  1  0  0  0  0
 22 23  1  0  0  0  0
 22 45  1  0  0  0  0
 23 24  1  0  0  0  0
 23 27  2  0  0  0  0
 24 25  2  0  0  0  0
 24 26  1  0  0  0  0
 27 28  1  0  0  0  0
 27 46  1  0  0  0  0
 28 47  1  0  0  0  0
 30 31  1  0  0  0  0
 30 48  1  0  0  0  0
 31 49  1  0  0  0  0
M  CHG  2  24   1  26  -1
M  END
$$$$
