CHEMBL4465126
 OpenBabel04072215383D

 43 45  0  0  0  0  0  0  0  0999 V2000
    8.7017   -8.0644    2.4988 C   0  0  0  0  0  0  0  0  0  0  0  0
    7.8183   -6.8504    2.6447 C   0  0  0  0  0  0  0  0  0  0  0  0
    7.5741   -6.3640    3.7437 O   0  0  0  0  0  0  0  0  0  0  0  0
    7.2337   -6.2414    1.4152 C   0  0  0  0  0  0  0  0  0  0  0  0
    7.4897   -6.7674    0.1455 C   0  0  0  0  0  0  0  0  0  0  0  0
    6.9162   -6.1757   -0.9809 C   0  0  0  0  0  0  0  0  0  0  0  0
    6.0650   -5.0699   -0.8657 C   0  0  0  0  0  0  0  0  0  0  0  0
    5.5367   -4.4194   -2.0086 N   0  0  0  0  0  0  0  0  0  0  0  0
    5.1261   -5.1122   -3.1759 C   0  0  0  0  0  0  0  0  0  0  0  0
    5.1102   -4.4512   -4.3876 C   0  0  0  0  0  0  0  0  0  0  0  0
    4.6482   -5.1665   -5.4676 C   0  0  0  0  0  0  0  0  0  0  0  0
    4.2024   -6.4294   -5.3848 N   0  0  0  0  0  0  0  0  0  0  0  0
    4.2026   -6.9740   -4.1614 C   0  0  0  0  0  0  0  0  0  0  0  0
    3.5769   -8.6264   -3.9981 S   0  0  0  0  0  0  0  0  0  0  0  0
    3.0303   -8.5651   -2.2594 C   0  0  0  0  0  0  0  0  0  0  0  0
    1.9630   -7.5045   -2.0277 C   0  0  0  0  0  0  0  0  0  0  0  0
    1.1379   -7.1880   -2.8862 O   0  0  0  0  0  0  0  0  0  0  0  0
    1.8193   -6.8967   -0.6687 C   0  0  0  0  0  0  0  0  0  0  0  0
    2.8788   -6.7966    0.2396 C   0  0  0  0  0  0  0  0  0  0  0  0
    2.6807   -6.1970    1.4900 C   0  0  0  0  0  0  0  0  0  0  0  0
    1.4282   -5.6936    1.8341 C   0  0  0  0  0  0  0  0  0  0  0  0
    1.1995   -4.9395    3.3625 Cl  0  0  0  0  0  0  0  0  0  0  0  0
    0.3654   -5.7871    0.9404 C   0  0  0  0  0  0  0  0  0  0  0  0
    0.5619   -6.3844   -0.3082 C   0  0  0  0  0  0  0  0  0  0  0  0
    4.6684   -6.3716   -3.0577 N   0  0  0  0  0  0  0  0  0  0  0  0
    5.8485   -4.5192    0.4004 C   0  0  0  0  0  0  0  0  0  0  0  0
    6.4147   -5.1110    1.5370 C   0  0  0  0  0  0  0  0  0  0  0  0
    9.0202   -8.4024    3.4891 H   0  0  0  0  0  0  0  0  0  0  0  0
    9.5956   -7.8143    1.9205 H   0  0  0  0  0  0  0  0  0  0  0  0
    8.1501   -8.8820    2.0258 H   0  0  0  0  0  0  0  0  0  0  0  0
    8.1285   -7.6304   -0.0017 H   0  0  0  0  0  0  0  0  0  0  0  0
    7.1432   -6.5983   -1.9582 H   0  0  0  0  0  0  0  0  0  0  0  0
    6.1575   -3.6515   -2.2526 H   0  0  0  0  0  0  0  0  0  0  0  0
    5.4551   -3.4334   -4.5006 H   0  0  0  0  0  0  0  0  0  0  0  0
    4.6160   -4.7277   -6.4608 H   0  0  0  0  0  0  0  0  0  0  0  0
    3.9100   -8.4322   -1.6298 H   0  0  0  0  0  0  0  0  0  0  0  0
    2.5877   -9.5345   -2.0075 H   0  0  0  0  0  0  0  0  0  0  0  0
    3.8795   -7.1374   -0.0051 H   0  0  0  0  0  0  0  0  0  0  0  0
    3.5131   -6.1121    2.1843 H   0  0  0  0  0  0  0  0  0  0  0  0
   -0.6135   -5.3931    1.2016 H   0  0  0  0  0  0  0  0  0  0  0  0
   -0.2741   -6.4451   -1.0038 H   0  0  0  0  0  0  0  0  0  0  0  0
    5.2075   -3.6477    0.5153 H   0  0  0  0  0  0  0  0  0  0  0  0
    6.2073   -4.6864    2.5177 H   0  0  0  0  0  0  0  0  0  0  0  0
  1  2  1  0  0  0  0
  1 28  1  0  0  0  0
  1 29  1  0  0  0  0
  1 30  1  0  0  0  0
  2  3  2  0  0  0  0
  2  4  1  0  0  0  0
  4  5  1  0  0  0  0
  4 27  2  0  0  0  0
  5  6  2  0  0  0  0
  5 31  1  0  0  0  0
  6  7  1  0  0  0  0
  6 32  1  0  0  0  0
  7  8  1  0  0  0  0
  7 26  2  0  0  0  0
  8  9  1  0  0  0  0
  8 33  1  0  0  0  0
  9 10  1  0  0  0  0
  9 25  2  0  0  0  0
 10 11  2  0  0  0  0
 10 34  1  0  0  0  0
 11 12  1  0  0  0  0
 11 35  1  0  0  0  0
 12 13  2  0  0  0  0
 13 14  1  0  0  0  0
 13 25  1  0  0  0  0
 14 15  1  0  0  0  0
 15 16  1  0  0  0  0
 15 36  1  0  0  0  0
 15 37  1  0  0  0  0
 16 17  2  0  0  0  0
 16 18  1  0  0  0  0
 18 19  1  0  0  0  0
 18 24  2  0  0  0  0
 19 20  2  0  0  0  0
 19 38  1  0  0  0  0
 20 21  1  0  0  0  0
 20 39  1  0  0  0  0
 21 22  1  0  0  0  0
 21 23  2  0  0  0  0
 23 24  1  0  0  0  0
 23 40  1  0  0  0  0
 24 41  1  0  0  0  0
 26 27  1  0  0  0  0
 26 42  1  0  0  0  0
 27 43  1  0  0  0  0
M  END
$$$$
