CHEMBL1242752
 OpenBabel04072215363D

 45 47  0  0  0  0  0  0  0  0999 V2000
    0.8982    2.1984   -1.7249 C   0  0  0  0  0  0  0  0  0  0  0  0
    2.3732    1.8505   -1.6541 C   0  0  0  0  0  0  0  0  0  0  0  0
    2.8232    2.0430   -0.3119 O   0  0  0  0  0  0  0  0  0  0  0  0
    4.1721    1.9469   -0.0840 C   0  0  0  0  0  0  0  0  0  0  0  0
    5.0745    1.4503   -1.0396 C   0  0  0  0  0  0  0  0  0  0  0  0
    6.4583    1.4325   -0.8058 C   0  0  0  0  0  0  0  0  0  0  0  0
    7.3639    0.8661   -1.8110 C   0  0  0  0  0  0  0  0  0  0  0  0
    7.0910    1.0113   -3.1212 N   0  0  0  0  0  0  0  0  0  0  0  0
    8.1214    0.3971   -3.7509 N   0  0  0  0  0  0  0  0  0  0  0  0
    8.1730    0.3717   -5.2087 C   0  0  0  0  0  0  0  0  0  0  0  0
    6.9853   -0.3851   -5.8044 C   0  0  0  0  0  0  0  0  0  0  0  0
    8.2665    1.7830   -5.7911 C   0  0  0  0  0  0  0  0  0  0  0  0
    9.0248   -0.1589   -2.8886 C   0  0  0  0  0  0  0  0  0  0  0  0
   10.1417   -0.8356   -3.2162 N   0  0  0  0  0  0  0  0  0  0  0  0
   10.7950   -1.2568   -2.1229 C   0  0  0  0  0  0  0  0  0  0  0  0
   10.4464   -1.0960   -0.8342 N   0  0  0  0  0  0  0  0  0  0  0  0
    9.3133   -0.4197   -0.5502 C   0  0  0  0  0  0  0  0  0  0  0  0
    8.9879   -0.3224    0.7951 N   0  0  0  0  0  0  0  0  0  0  0  0
    8.5572    0.1008   -1.6107 C   0  0  0  0  0  0  0  0  0  0  0  0
    6.9400    1.9652    0.3887 C   0  0  0  0  0  0  0  0  0  0  0  0
    6.0543    2.4065    1.3692 C   0  0  0  0  0  0  0  0  0  0  0  0
    4.6711    2.3820    1.1553 C   0  0  0  0  0  0  0  0  0  0  0  0
    3.9589    2.8767    2.2163 O   0  0  0  0  0  0  0  0  0  0  0  0
    2.6587    2.3410    2.4228 C   0  0  0  0  0  0  0  0  0  0  0  0
    0.5094    2.0230   -2.7324 H   0  0  0  0  0  0  0  0  0  0  0  0
    0.7372    3.2492   -1.4635 H   0  0  0  0  0  0  0  0  0  0  0  0
    0.3238    1.5973   -1.0131 H   0  0  0  0  0  0  0  0  0  0  0  0
    2.9211    2.5024   -2.3452 H   0  0  0  0  0  0  0  0  0  0  0  0
    2.5022    0.8007   -1.9402 H   0  0  0  0  0  0  0  0  0  0  0  0
    4.7247    1.0693   -1.9944 H   0  0  0  0  0  0  0  0  0  0  0  0
    9.0866   -0.1656   -5.4858 H   0  0  0  0  0  0  0  0  0  0  0  0
    6.0304    0.0807   -5.5367 H   0  0  0  0  0  0  0  0  0  0  0  0
    6.9627   -1.4200   -5.4467 H   0  0  0  0  0  0  0  0  0  0  0  0
    7.0506   -0.4095   -6.8983 H   0  0  0  0  0  0  0  0  0  0  0  0
    7.3768    2.3775   -5.5561 H   0  0  0  0  0  0  0  0  0  0  0  0
    8.3657    1.7447   -6.8815 H   0  0  0  0  0  0  0  0  0  0  0  0
    9.1374    2.3133   -5.3918 H   0  0  0  0  0  0  0  0  0  0  0  0
   11.7186   -1.8026   -2.2991 H   0  0  0  0  0  0  0  0  0  0  0  0
    9.5591   -0.9562    1.3459 H   0  0  0  0  0  0  0  0  0  0  0  0
    7.9991   -0.3420    0.9990 H   0  0  0  0  0  0  0  0  0  0  0  0
    8.0083    2.0426    0.5807 H   0  0  0  0  0  0  0  0  0  0  0  0
    6.4444    2.7766    2.3163 H   0  0  0  0  0  0  0  0  0  0  0  0
    2.3726    2.5683    3.4552 H   0  0  0  0  0  0  0  0  0  0  0  0
    2.6377    1.2519    2.3080 H   0  0  0  0  0  0  0  0  0  0  0  0
    1.9281    2.8312    1.7744 H   0  0  0  0  0  0  0  0  0  0  0  0
  1  2  1  0  0  0  0
  1 25  1  0  0  0  0
  1 26  1  0  0  0  0
  1 27  1  0  0  0  0
  2  3  1  0  0  0  0
  2 28  1  0  0  0  0
  2 29  1  0  0  0  0
  3  4  1  0  0  0  0
  4  5  1  0  0  0  0
  4 22  2  0  0  0  0
  5  6  2  0  0  0  0
  5 30  1  0  0  0  0
  6  7  1  0  0  0  0
  6 20  1  0  0  0  0
  7  8  2  0  0  0  0
  7 19  1  0  0  0  0
  8  9  1  0  0  0  0
  9 10  1  0  0  0  0
  9 13  1  0  0  0  0
 10 11  1  0  0  0  0
 10 12  1  0  0  0  0
 10 31  1  0  0  0  0
 11 32  1  0  0  0  0
 11 33  1  0  0  0  0
 11 34  1  0  0  0  0
 12 35  1  0  0  0  0
 12 36  1  0  0  0  0
 12 37  1  0  0  0  0
 13 14  1  0  0  0  0
 13 19  2  0  0  0  0
 14 15  2  0  0  0  0
 15 16  1  0  0  0  0
 15 38  1  0  0  0  0
 16 17  2  0  0  0  0
 17 18  1  0  0  0  0
 17 19  1  0  0  0  0
 18 39  1  0  0  0  0
 18 40  1  0  0  0  0
 20 21  2  0  0  0  0
 20 41  1  0  0  0  0
 21 22  1  0  0  0  0
 21 42  1  0  0  0  0
 22 23  1  0  0  0  0
 23 24  1  0  0  0  0
 24 43  1  0  0  0  0
 24 44  1  0  0  0  0
 24 45  1  0  0  0  0
M  END
$$$$
