CHEMBL1993243
 OpenBabel04072215363D

 40 43  0  0  0  0  0  0  0  0999 V2000
    1.0999   -0.1674    0.3310 C   0  0  0  0  0  0  0  0  0  0  0  0
    2.5336   -0.2621    0.3300 N   0  0  0  0  0  0  0  0  0  0  0  0
    3.1634   -1.1979   -0.4529 C   0  0  0  0  0  0  0  0  0  0  0  0
    2.5770   -1.9952   -1.1715 O   0  0  0  0  0  0  0  0  0  0  0  0
    4.6381   -1.1391   -0.3465 C   0  0  0  0  0  0  0  0  0  0  0  0
    5.3690   -2.0257   -1.0394 C   0  0  0  0  0  0  0  0  0  0  0  0
    6.8307   -2.0478   -1.0569 C   0  0  0  0  0  0  0  0  0  0  0  0
    7.6217   -1.7283    0.0313 C   0  0  0  0  0  0  0  0  0  0  0  0
    8.9611   -1.7571    0.0377 N   0  0  0  0  0  0  0  0  0  0  0  0
    9.6375   -2.1307   -1.0682 C   0  0  0  0  0  0  0  0  0  0  0  0
   10.9987   -2.1904   -0.8761 N   0  0  0  0  0  0  0  0  0  0  0  0
    8.9357   -2.4299   -2.2752 C   0  0  0  0  0  0  0  0  0  0  0  0
    9.3918   -2.7477   -3.6316 C   0  0  0  0  0  0  0  0  0  0  0  0
   10.7537   -2.7632   -4.1638 C   0  0  0  0  0  0  0  0  0  0  0  0
   11.6266   -1.6818   -3.9066 C   0  0  0  0  0  0  0  0  0  0  0  0
   12.9757   -1.7452   -4.2667 C   0  0  0  0  0  0  0  0  0  0  0  0
   13.4013   -2.8724   -4.9316 C   0  0  0  0  0  0  0  0  0  0  0  0
   12.5341   -3.8830   -5.2746 C   0  0  0  0  0  0  0  0  0  0  0  0
   11.2068   -3.8593   -4.9127 C   0  0  0  0  0  0  0  0  0  0  0  0
   13.1540   -4.8939   -5.9415 O   0  0  0  0  0  0  0  0  0  0  0  0
   14.5308   -4.5141   -5.7463 C   0  0  0  0  0  0  0  0  0  0  0  0
   14.6809   -3.1491   -5.3009 O   0  0  0  0  0  0  0  0  0  0  0  0
    8.3482   -3.0703   -4.4729 C   0  0  0  0  0  0  0  0  0  0  0  0
    6.8385   -2.9262   -3.7306 S   0  0  0  0  0  0  0  0  0  0  0  0
    7.5300   -2.4250   -2.2211 C   0  0  0  0  0  0  0  0  0  0  0  0
    0.7990    0.6111    1.0354 H   0  0  0  0  0  0  0  0  0  0  0  0
    0.6725   -1.1295    0.6276 H   0  0  0  0  0  0  0  0  0  0  0  0
    0.7584    0.0850   -0.6769 H   0  0  0  0  0  0  0  0  0  0  0  0
    3.0687    0.3784    0.8987 H   0  0  0  0  0  0  0  0  0  0  0  0
    5.0814   -0.3683    0.2693 H   0  0  0  0  0  0  0  0  0  0  0  0
    4.8649   -2.7648   -1.6623 H   0  0  0  0  0  0  0  0  0  0  0  0
    7.1852   -1.4370    0.9822 H   0  0  0  0  0  0  0  0  0  0  0  0
   11.3045   -1.7092   -0.0398 H   0  0  0  0  0  0  0  0  0  0  0  0
   11.6398   -2.2974   -1.6403 H   0  0  0  0  0  0  0  0  0  0  0  0
   11.2653   -0.8036   -3.3727 H   0  0  0  0  0  0  0  0  0  0  0  0
   13.6666   -0.9531   -4.0023 H   0  0  0  0  0  0  0  0  0  0  0  0
   10.5623   -4.6933   -5.1688 H   0  0  0  0  0  0  0  0  0  0  0  0
   15.0814   -4.6486   -6.6823 H   0  0  0  0  0  0  0  0  0  0  0  0
   14.9580   -5.1799   -4.9858 H   0  0  0  0  0  0  0  0  0  0  0  0
    8.3953   -3.3697   -5.5119 H   0  0  0  0  0  0  0  0  0  0  0  0
  1  2  1  0  0  0  0
  1 26  1  0  0  0  0
  1 27  1  0  0  0  0
  1 28  1  0  0  0  0
  2  3  1  0  0  0  0
  2 29  1  0  0  0  0
  3  4  2  0  0  0  0
  3  5  1  0  0  0  0
  5  6  2  3  0  0  0
  5 30  1  0  0  0  0
  6  7  1  0  0  0  0
  6 31  1  0  0  0  0
  7  8  1  0  0  0  0
  7 25  2  0  0  0  0
  8  9  2  0  0  0  0
  8 32  1  0  0  0  0
  9 10  1  0  0  0  0
 10 11  1  0  0  0  0
 10 12  2  0  0  0  0
 11 33  1  0  0  0  0
 11 34  1  0  0  0  0
 12 13  1  0  0  0  0
 12 25  1  0  0  0  0
 13 14  1  0  0  0  0
 13 23  2  0  0  0  0
 14 15  1  0  0  0  0
 14 19  2  0  0  0  0
 15 16  2  0  0  0  0
 15 35  1  0  0  0  0
 16 17  1  0  0  0  0
 16 36  1  0  0  0  0
 17 18  2  0  0  0  0
 17 22  1  0  0  0  0
 18 19  1  0  0  0  0
 18 20  1  0  0  0  0
 19 37  1  0  0  0  0
 20 21  1  0  0  0  0
 21 22  1  0  0  0  0
 21 38  1  0  0  0  0
 21 39  1  0  0  0  0
 23 24  1  0  0  0  0
 23 40  1  0  0  0  0
 24 25  1  0  0  0  0
M  END
$$$$
