CHEMBL1269716
 OpenBabel04072215363D

 30 32  0  0  0  0  0  0  0  0999 V2000
    1.0920   -0.7042    0.0056 O   0  0  0  0  0  0  0  0  0  0  0  0
    2.2060   -0.1971    0.0416 C   0  0  0  0  0  0  0  0  0  0  0  0
    2.7468    0.5163    1.0974 N   0  0  0  0  0  0  0  0  0  0  0  0
    2.1060    0.7459    2.3353 C   0  0  0  0  0  0  0  0  0  0  0  0
    0.9920    0.0500    2.7882 C   0  0  0  0  0  0  0  0  0  0  0  0
    0.3587    0.3015    3.9615 N   0  0  0  0  0  0  0  0  0  0  0  0
    0.8208    1.3013    4.7252 C   0  0  0  0  0  0  0  0  0  0  0  0
    0.1566    1.6132    5.9017 C   0  0  0  0  0  0  0  0  0  0  0  0
    0.5747    2.6625    6.7232 C   0  0  0  0  0  0  0  0  0  0  0  0
    1.6909    3.4131    6.3711 C   0  0  0  0  0  0  0  0  0  0  0  0
    2.3856    3.1112    5.2013 C   0  0  0  0  0  0  0  0  0  0  0  0
    1.9542    2.0600    4.3696 C   0  0  0  0  0  0  0  0  0  0  0  0
    2.6084    1.7477    3.1662 C   0  0  0  0  0  0  0  0  0  0  0  0
    3.0465   -0.2785   -1.1720 C   0  0  0  0  0  0  0  0  0  0  0  0
    2.4223   -0.2890   -2.4154 C   0  0  0  0  0  0  0  0  0  0  0  0
    3.0932   -0.3490   -3.5921 N   0  0  0  0  0  0  0  0  0  0  0  0
    4.4426   -0.4249   -3.5180 C   0  0  0  0  0  0  0  0  0  0  0  0
    5.1457   -0.4422   -2.3215 C   0  0  0  0  0  0  0  0  0  0  0  0
    7.0268   -0.5644   -2.3113 Br  0  0  0  0  0  0  0  0  0  0  0  0
    4.4392   -0.3698   -1.1245 C   0  0  0  0  0  0  0  0  0  0  0  0
    3.5901    1.0492    0.9276 H   0  0  0  0  0  0  0  0  0  0  0  0
    0.5517   -0.7697    2.2297 H   0  0  0  0  0  0  0  0  0  0  0  0
   -0.7187    1.0298    6.1778 H   0  0  0  0  0  0  0  0  0  0  0  0
    0.0222    2.8903    7.6308 H   0  0  0  0  0  0  0  0  0  0  0  0
    2.0132    4.2376    7.0025 H   0  0  0  0  0  0  0  0  0  0  0  0
    3.2525    3.7100    4.9329 H   0  0  0  0  0  0  0  0  0  0  0  0
    3.4831    2.3200    2.8697 H   0  0  0  0  0  0  0  0  0  0  0  0
    1.3388   -0.2386   -2.5054 H   0  0  0  0  0  0  0  0  0  0  0  0
    4.9493   -0.4783   -4.4780 H   0  0  0  0  0  0  0  0  0  0  0  0
    4.9659   -0.4163   -0.1766 H   0  0  0  0  0  0  0  0  0  0  0  0
  1  2  2  0  0  0  0
  2  3  1  0  0  0  0
  2 14  1  0  0  0  0
  3  4  1  0  0  0  0
  3 21  1  0  0  0  0
  4  5  1  0  0  0  0
  4 13  2  0  0  0  0
  5  6  2  0  0  0  0
  5 22  1  0  0  0  0
  6  7  1  0  0  0  0
  7  8  1  0  0  0  0
  7 12  2  0  0  0  0
  8  9  2  0  0  0  0
  8 23  1  0  0  0  0
  9 10  1  0  0  0  0
  9 24  1  0  0  0  0
 10 11  2  0  0  0  0
 10 25  1  0  0  0  0
 11 12  1  0  0  0  0
 11 26  1  0  0  0  0
 12 13  1  0  0  0  0
 13 27  1  0  0  0  0
 14 15  1  0  0  0  0
 14 20  2  0  0  0  0
 15 16  2  0  0  0  0
 15 28  1  0  0  0  0
 16 17  1  0  0  0  0
 17 18  2  0  0  0  0
 17 29  1  0  0  0  0
 18 19  1  0  0  0  0
 18 20  1  0  0  0  0
 20 30  1  0  0  0  0
M  END
$$$$
