CHEMBL1965387
 OpenBabel04072215363D

 61 65  0  0  0  0  0  0  0  0999 V2000
    2.5310    1.3942    0.0200 N   0  0  0  0  0  0  0  0  0  0  0  0
    1.6238    0.4090    0.0099 C   0  0  0  0  0  0  0  0  0  0  0  0
    2.0502   -0.8486    0.0108 N   0  0  0  0  0  0  0  0  0  0  0  0
    0.9266   -1.5516   -0.0441 N   0  0  0  0  0  0  0  0  0  0  0  0
   -0.2290   -0.8325    0.0150 C   0  0  0  0  0  0  0  0  0  0  0  0
   -1.5785   -1.2280    0.0352 C   0  0  0  0  0  0  0  0  0  0  0  0
   -2.0825   -2.5170    0.0063 O   0  0  0  0  0  0  0  0  0  0  0  0
   -1.2889   -3.5199    0.6325 C   0  0  0  0  0  0  0  0  0  0  0  0
   -2.2012   -4.6283    1.1411 C   0  0  0  0  0  0  0  0  0  0  0  0
   -1.3731   -5.7248    1.7999 C   0  0  0  0  0  0  0  0  0  0  0  0
   -2.1933   -6.7896    2.3448 N   0  0  0  0  0  0  0  0  0  0  0  0
   -2.6790   -6.8308    3.6247 C   0  0  0  0  0  0  0  0  0  0  0  0
   -3.3832   -8.0055    3.7708 C   0  0  0  0  0  0  0  0  0  0  0  0
   -3.3099   -8.6979    2.5386 C   0  0  0  0  0  0  0  0  0  0  0  0
   -2.5630   -7.9255    1.6758 C   0  0  0  0  0  0  0  0  0  0  0  0
   -2.5366   -0.2243    0.0258 C   0  0  0  0  0  0  0  0  0  0  0  0
   -2.1695    1.1220    0.0397 C   0  0  0  0  0  0  0  0  0  0  0  0
   -0.8213    1.5359    0.0344 C   0  0  0  0  0  0  0  0  0  0  0  0
   -0.4881    2.9775    0.0542 C   0  0  0  0  0  0  0  0  0  0  0  0
    0.5544    3.4533    0.8419 C   0  0  0  0  0  0  0  0  0  0  0  0
    0.9873    4.7752    0.7710 C   0  0  0  0  0  0  0  0  0  0  0  0
    0.2951    5.7293    0.0297 C   0  0  0  0  0  0  0  0  0  0  0  0
    0.6620    7.0964    0.0307 N   0  0  0  0  0  0  0  0  0  0  0  0
    1.7948    7.6173    0.6398 C   0  0  0  0  0  0  0  0  0  0  0  0
    2.6674    6.9621    1.1978 O   0  0  0  0  0  0  0  0  0  0  0  0
    1.8300    9.0065    0.6117 N   0  0  0  0  0  0  0  0  0  0  0  0
    2.9246    9.6740    1.2209 C   0  0  0  0  0  0  0  0  0  0  0  0
    2.6736   10.6556    2.1812 C   0  0  0  0  0  0  0  0  0  0  0  0
    3.7386   11.2843    2.8330 C   0  0  0  0  0  0  0  0  0  0  0  0
    5.0548   10.9621    2.4991 C   0  0  0  0  0  0  0  0  0  0  0  0
    5.3034    9.9927    1.5297 C   0  0  0  0  0  0  0  0  0  0  0  0
    6.9274    9.6069    1.1081 Cl  0  0  0  0  0  0  0  0  0  0  0  0
    4.2464    9.3401    0.8973 C   0  0  0  0  0  0  0  0  0  0  0  0
   -0.8221    5.3020   -0.6843 C   0  0  0  0  0  0  0  0  0  0  0  0
   -1.1990    3.9401   -0.6871 C   0  0  0  0  0  0  0  0  0  0  0  0
    0.1891    0.5122    0.0141 C   0  0  0  0  0  0  0  0  0  0  0  0
    3.5052    1.1349   -0.0456 H   0  0  0  0  0  0  0  0  0  0  0  0
    2.3284    2.3374   -0.2838 H   0  0  0  0  0  0  0  0  0  0  0  0
    1.0241   -2.5581   -0.1060 H   0  0  0  0  0  0  0  0  0  0  0  0
   -0.7225   -3.1152    1.4788 H   0  0  0  0  0  0  0  0  0  0  0  0
   -0.6025   -3.9335   -0.1151 H   0  0  0  0  0  0  0  0  0  0  0  0
   -2.7980   -5.0328    0.3138 H   0  0  0  0  0  0  0  0  0  0  0  0
   -2.9254   -4.2083    1.8506 H   0  0  0  0  0  0  0  0  0  0  0  0
   -0.7744   -5.3195    2.6244 H   0  0  0  0  0  0  0  0  0  0  0  0
   -0.6785   -6.1768    1.0820 H   0  0  0  0  0  0  0  0  0  0  0  0
   -2.4882   -6.0289    4.3262 H   0  0  0  0  0  0  0  0  0  0  0  0
   -3.8907   -8.3295    4.6699 H   0  0  0  0  0  0  0  0  0  0  0  0
   -3.7506   -9.6586    2.3065 H   0  0  0  0  0  0  0  0  0  0  0  0
   -2.2705   -8.0969    0.6480 H   0  0  0  0  0  0  0  0  0  0  0  0
   -3.5903   -0.4900    0.0268 H   0  0  0  0  0  0  0  0  0  0  0  0
   -2.9710    1.8584    0.0674 H   0  0  0  0  0  0  0  0  0  0  0  0
    1.0948    2.7884    1.5135 H   0  0  0  0  0  0  0  0  0  0  0  0
    1.8845    5.0050    1.3324 H   0  0  0  0  0  0  0  0  0  0  0  0
    0.1011    7.7297   -0.5246 H   0  0  0  0  0  0  0  0  0  0  0  0
    0.9263    9.4429    0.7174 H   0  0  0  0  0  0  0  0  0  0  0  0
    1.6571   10.8913    2.4832 H   0  0  0  0  0  0  0  0  0  0  0  0
    3.5436   12.0173    3.6120 H   0  0  0  0  0  0  0  0  0  0  0  0
    5.8798   11.4622    2.9999 H   0  0  0  0  0  0  0  0  0  0  0  0
    4.4546    8.5724    0.1562 H   0  0  0  0  0  0  0  0  0  0  0  0
   -1.4247    6.0047   -1.2638 H   0  0  0  0  0  0  0  0  0  0  0  0
   -2.0613    3.6446   -1.2843 H   0  0  0  0  0  0  0  0  0  0  0  0
  1  2  1  0  0  0  0
  1 37  1  0  0  0  0
  1 38  1  0  0  0  0
  2  3  2  0  0  0  0
  2 36  1  0  0  0  0
  3  4  1  0  0  0  0
  4  5  1  0  0  0  0
  4 39  1  0  0  0  0
  5  6  1  0  0  0  0
  5 36  2  0  0  0  0
  6  7  1  0  0  0  0
  6 16  2  0  0  0  0
  7  8  1  0  0  0  0
  8  9  1  0  0  0  0
  8 40  1  0  0  0  0
  8 41  1  0  0  0  0
  9 10  1  0  0  0  0
  9 42  1  0  0  0  0
  9 43  1  0  0  0  0
 10 11  1  0  0  0  0
 10 44  1  0  0  0  0
 10 45  1  0  0  0  0
 11 12  1  0  0  0  0
 11 15  1  0  0  0  0
 12 13  2  0  0  0  0
 12 46  1  0  0  0  0
 13 14  1  0  0  0  0
 13 47  1  0  0  0  0
 14 15  2  0  0  0  0
 14 48  1  0  0  0  0
 15 49  1  0  0  0  0
 16 17  1  0  0  0  0
 16 50  1  0  0  0  0
 17 18  2  0  0  0  0
 17 51  1  0  0  0  0
 18 19  1  0  0  0  0
 18 36  1  0  0  0  0
 19 20  1  0  0  0  0
 19 35  2  0  0  0  0
 20 21  2  0  0  0  0
 20 52  1  0  0  0  0
 21 22  1  0  0  0  0
 21 53  1  0  0  0  0
 22 23  1  0  0  0  0
 22 34  2  0  0  0  0
 23 24  1  0  0  0  0
 23 54  1  0  0  0  0
 24 25  2  0  0  0  0
 24 26  1  0  0  0  0
 26 27  1  0  0  0  0
 26 55  1  0  0  0  0
 27 28  1  0  0  0  0
 27 33  2  0  0  0  0
 28 29  2  0  0  0  0
 28 56  1  0  0  0  0
 29 30  1  0  0  0  0
 29 57  1  0  0  0  0
 30 31  2  0  0  0  0
 30 58  1  0  0  0  0
 31 32  1  0  0  0  0
 31 33  1  0  0  0  0
 33 59  1  0  0  0  0
 34 35  1  0  0  0  0
 34 60  1  0  0  0  0
 35 61  1  0  0  0  0
M  END
$$$$
