CHEMBL518867
 OpenBabel04072215383D

 57 60  0  0  0  0  0  0  0  0999 V2000
    1.1665    0.2736    0.8422 C   0  0  0  0  0  0  0  0  0  0  0  0
    2.5967    0.2744    0.8181 O   0  0  0  0  0  0  0  0  0  0  0  0
    3.1356   -0.9643    0.7116 C   0  0  0  0  0  0  0  0  0  0  0  0
    2.5092   -2.0103    0.6376 O   0  0  0  0  0  0  0  0  0  0  0  0
    4.6243   -0.9123    0.7298 C   0  0  0  0  0  0  0  0  0  0  0  0
    5.3605    0.2873    0.8517 C   0  0  0  0  0  0  0  0  0  0  0  0
    6.7690    0.2755    0.9423 C   0  0  0  0  0  0  0  0  0  0  0  0
    7.4320   -0.9416    0.9276 C   0  0  0  0  0  0  0  0  0  0  0  0
    6.6765   -2.1135    0.7821 C   0  0  0  0  0  0  0  0  0  0  0  0
    5.2999   -2.1342    0.6699 C   0  0  0  0  0  0  0  0  0  0  0  0
    7.4852   -3.2384    0.8386 N   0  0  0  0  0  0  0  0  0  0  0  0
    8.8003   -2.8983    1.0940 C   0  0  0  0  0  0  0  0  0  0  0  0
    9.6643   -3.6778    1.4502 O   0  0  0  0  0  0  0  0  0  0  0  0
    8.8455   -1.3832    1.0243 C   0  0  0  0  0  0  0  0  0  0  0  0
   10.0205   -0.7130    1.0888 C   0  0  0  0  0  0  0  0  0  0  0  0
   11.3124   -1.2259    0.9510 N   0  0  0  0  0  0  0  0  0  0  0  0
   11.7362   -2.0785   -0.0953 C   0  0  0  0  0  0  0  0  0  0  0  0
   11.3111   -1.8730   -1.4153 C   0  0  0  0  0  0  0  0  0  0  0  0
   11.6051   -2.7985   -2.4249 C   0  0  0  0  0  0  0  0  0  0  0  0
   12.3172   -3.9586   -2.1244 C   0  0  0  0  0  0  0  0  0  0  0  0
   12.3736   -5.0094   -3.0930 N   0  0  0  0  0  0  0  0  0  0  0  0
   11.5906   -6.2285   -2.8490 C   0  0  0  0  0  0  0  0  0  0  0  0
   13.5625   -5.0431   -4.2797 S   0  0  0  0  0  0  0  0  0  0  0  0
   14.8341   -6.0344   -3.5056 C   0  0  0  0  0  0  0  0  0  0  0  0
   13.0588   -5.8146   -5.3950 O   0  0  0  0  0  0  0  0  0  0  0  0
   14.1045   -3.7122   -4.4777 O   0  0  0  0  0  0  0  0  0  0  0  0
   12.8249   -4.1357   -0.8374 C   0  0  0  0  0  0  0  0  0  0  0  0
   12.5432   -3.1948    0.1677 C   0  0  0  0  0  0  0  0  0  0  0  0
   10.0310    0.7366    1.3761 C   0  0  0  0  0  0  0  0  0  0  0  0
   10.0638    1.1759    2.7080 C   0  0  0  0  0  0  0  0  0  0  0  0
   10.1260    2.5403    3.0006 C   0  0  0  0  0  0  0  0  0  0  0  0
   10.1526    3.4717    1.9630 C   0  0  0  0  0  0  0  0  0  0  0  0
   10.1229    3.0433    0.6359 C   0  0  0  0  0  0  0  0  0  0  0  0
   10.0676    1.6790    0.3411 C   0  0  0  0  0  0  0  0  0  0  0  0
    0.8236    1.3090    0.7693 H   0  0  0  0  0  0  0  0  0  0  0  0
    0.8063   -0.1476    1.7866 H   0  0  0  0  0  0  0  0  0  0  0  0
    0.7578   -0.2835   -0.0076 H   0  0  0  0  0  0  0  0  0  0  0  0
    4.8428    1.2446    0.8932 H   0  0  0  0  0  0  0  0  0  0  0  0
    7.2993    1.2166    1.0437 H   0  0  0  0  0  0  0  0  0  0  0  0
    4.7596   -3.0707    0.5691 H   0  0  0  0  0  0  0  0  0  0  0  0
    7.1589   -4.1919    0.8780 H   0  0  0  0  0  0  0  0  0  0  0  0
   11.7794   -1.3776    1.8397 H   0  0  0  0  0  0  0  0  0  0  0  0
   10.7282   -0.9912   -1.6646 H   0  0  0  0  0  0  0  0  0  0  0  0
   11.2319   -2.6284   -3.4309 H   0  0  0  0  0  0  0  0  0  0  0  0
   10.8609   -6.0821   -2.0470 H   0  0  0  0  0  0  0  0  0  0  0  0
   12.2444   -7.0544   -2.5560 H   0  0  0  0  0  0  0  0  0  0  0  0
   11.0336   -6.5087   -3.7477 H   0  0  0  0  0  0  0  0  0  0  0  0
   14.4275   -7.0191   -3.2642 H   0  0  0  0  0  0  0  0  0  0  0  0
   15.1928   -5.5252   -2.6125 H   0  0  0  0  0  0  0  0  0  0  0  0
   15.6486   -6.1524   -4.2227 H   0  0  0  0  0  0  0  0  0  0  0  0
   13.3876   -5.0285   -0.5845 H   0  0  0  0  0  0  0  0  0  0  0  0
   12.8957   -3.3874    1.1776 H   0  0  0  0  0  0  0  0  0  0  0  0
   10.0595    0.4580    3.5252 H   0  0  0  0  0  0  0  0  0  0  0  0
   10.1665    2.8747    4.0345 H   0  0  0  0  0  0  0  0  0  0  0  0
   10.2113    4.5332    2.1897 H   0  0  0  0  0  0  0  0  0  0  0  0
   10.1583    3.7705   -0.1712 H   0  0  0  0  0  0  0  0  0  0  0  0
   10.0665    1.3536   -0.6957 H   0  0  0  0  0  0  0  0  0  0  0  0
  1  2  1  0  0  0  0
  1 35  1  0  0  0  0
  1 36  1  0  0  0  0
  1 37  1  0  0  0  0
  2  3  1  0  0  0  0
  3  4  2  0  0  0  0
  3  5  1  0  0  0  0
  5  6  1  0  0  0  0
  5 10  2  0  0  0  0
  6  7  2  0  0  0  0
  6 38  1  0  0  0  0
  7  8  1  0  0  0  0
  7 39  1  0  0  0  0
  8  9  2  0  0  0  0
  8 14  1  0  0  0  0
  9 10  1  0  0  0  0
  9 11  1  0  0  0  0
 10 40  1  0  0  0  0
 11 12  1  0  0  0  0
 11 41  1  0  0  0  0
 12 13  2  0  0  0  0
 12 14  1  0  0  0  0
 14 15  2  0  0  0  0
 15 16  1  0  0  0  0
 15 29  1  0  0  0  0
 16 17  1  0  0  0  0
 16 42  1  0  0  0  0
 17 18  1  0  0  0  0
 17 28  2  0  0  0  0
 18 19  2  0  0  0  0
 18 43  1  0  0  0  0
 19 20  1  0  0  0  0
 19 44  1  0  0  0  0
 20 21  1  0  0  0  0
 20 27  2  0  0  0  0
 21 22  1  0  0  0  0
 21 23  1  0  0  0  0
 22 45  1  0  0  0  0
 22 46  1  0  0  0  0
 22 47  1  0  0  0  0
 23 24  1  0  0  0  0
 23 25  2  0  0  0  0
 23 26  2  0  0  0  0
 24 48  1  0  0  0  0
 24 49  1  0  0  0  0
 24 50  1  0  0  0  0
 27 28  1  0  0  0  0
 27 51  1  0  0  0  0
 28 52  1  0  0  0  0
 29 30  1  0  0  0  0
 29 34  2  0  0  0  0
 30 31  2  0  0  0  0
 30 53  1  0  0  0  0
 31 32  1  0  0  0  0
 31 54  1  0  0  0  0
 32 33  2  0  0  0  0
 32 55  1  0  0  0  0
 33 34  1  0  0  0  0
 33 56  1  0  0  0  0
 34 57  1  0  0  0  0
M  END
$$$$
