CHEMBL3895343
 OpenBabel04072215373D

 53 56  0  0  0  0  0  0  0  0999 V2000
    2.7653   -1.4274   -2.6882 O   0  0  0  0  0  0  0  0  0  0  0  0
    2.2903   -1.0617   -1.6204 C   0  0  0  0  0  0  0  0  0  0  0  0
    0.9666   -0.6890   -1.4495 N   0  0  0  0  0  0  0  0  0  0  0  0
   -0.0144   -0.6687   -2.4722 C   0  0  0  0  0  0  0  0  0  0  0  0
    0.1384   -1.3230   -3.6996 C   0  0  0  0  0  0  0  0  0  0  0  0
   -0.8543   -1.2501   -4.6789 C   0  0  0  0  0  0  0  0  0  0  0  0
   -2.0080   -0.5163   -4.4392 C   0  0  0  0  0  0  0  0  0  0  0  0
   -2.9742   -0.5265   -5.3670 F   0  0  0  0  0  0  0  0  0  0  0  0
   -2.1703    0.1772   -3.2419 C   0  0  0  0  0  0  0  0  0  0  0  0
   -3.2532    0.9336   -2.9056 O   0  0  0  0  0  0  0  0  0  0  0  0
   -3.8450    1.7528   -3.9110 C   0  0  0  0  0  0  0  0  0  0  0  0
   -3.1713    1.7899   -5.0772 F   0  0  0  0  0  0  0  0  0  0  0  0
   -5.1122    1.3452   -4.1316 F   0  0  0  0  0  0  0  0  0  0  0  0
   -3.8931    3.0204   -3.4360 F   0  0  0  0  0  0  0  0  0  0  0  0
   -1.1905    0.0578   -2.2435 C   0  0  0  0  0  0  0  0  0  0  0  0
    3.0348   -0.9077   -0.4633 N   0  0  0  0  0  0  0  0  0  0  0  0
    4.4395   -1.0812   -0.3638 C   0  0  0  0  0  0  0  0  0  0  0  0
    5.2233   -1.7080   -1.3367 C   0  0  0  0  0  0  0  0  0  0  0  0
    6.6167   -1.7451   -1.2141 C   0  0  0  0  0  0  0  0  0  0  0  0
    7.2442   -1.1624   -0.1137 C   0  0  0  0  0  0  0  0  0  0  0  0
    8.6208   -1.2157   -0.0884 O   0  0  0  0  0  0  0  0  0  0  0  0
    9.3257   -0.1167    0.3570 C   0  0  0  0  0  0  0  0  0  0  0  0
    8.8871    1.1954    0.2177 C   0  0  0  0  0  0  0  0  0  0  0  0
    9.6730    2.1912    0.7544 C   0  0  0  0  0  0  0  0  0  0  0  0
   10.8550    1.9620    1.3538 N   0  0  0  0  0  0  0  0  0  0  0  0
   11.3126    0.7015    1.4236 C   0  0  0  0  0  0  0  0  0  0  0  0
   12.5688    0.4465    1.9935 N   0  0  0  0  0  0  0  0  0  0  0  0
   13.3773    1.4168    2.5477 C   0  0  0  0  0  0  0  0  0  0  0  0
   13.1424    2.6086    2.6792 O   0  0  0  0  0  0  0  0  0  0  0  0
   14.7020    0.8882    3.0054 C   0  0  0  0  0  0  0  0  0  0  0  0
   15.6466    1.7740    3.7899 C   0  0  0  0  0  0  0  0  0  0  0  0
   15.9630    1.4251    2.3654 C   0  0  0  0  0  0  0  0  0  0  0  0
   10.5740   -0.3692    0.9317 C   0  0  0  0  0  0  0  0  0  0  0  0
    6.4690   -0.6145    0.9095 C   0  0  0  0  0  0  0  0  0  0  0  0
    5.0825   -0.5679    0.7693 C   0  0  0  0  0  0  0  0  0  0  0  0
    4.3558    0.0331    1.7257 F   0  0  0  0  0  0  0  0  0  0  0  0
    0.7210   -0.2472   -0.5764 H   0  0  0  0  0  0  0  0  0  0  0  0
    1.0135   -1.9258   -3.9236 H   0  0  0  0  0  0  0  0  0  0  0  0
   -0.7281   -1.7715   -5.6230 H   0  0  0  0  0  0  0  0  0  0  0  0
   -1.3474    0.5701   -1.2972 H   0  0  0  0  0  0  0  0  0  0  0  0
    2.5944   -0.4789    0.3399 H   0  0  0  0  0  0  0  0  0  0  0  0
    4.7864   -2.1771   -2.2133 H   0  0  0  0  0  0  0  0  0  0  0  0
    7.2077   -2.2168   -1.9969 H   0  0  0  0  0  0  0  0  0  0  0  0
    7.9592    1.4528   -0.2774 H   0  0  0  0  0  0  0  0  0  0  0  0
    9.3692    3.2329    0.7226 H   0  0  0  0  0  0  0  0  0  0  0  0
   12.9053   -0.5030    1.9718 H   0  0  0  0  0  0  0  0  0  0  0  0
   14.7079   -0.1594    3.2891 H   0  0  0  0  0  0  0  0  0  0  0  0
   16.2410    1.3205    4.5734 H   0  0  0  0  0  0  0  0  0  0  0  0
   15.3387    2.7927    4.0063 H   0  0  0  0  0  0  0  0  0  0  0  0
   16.7770    0.7358    2.1790 H   0  0  0  0  0  0  0  0  0  0  0  0
   15.8681    2.2152    1.6268 H   0  0  0  0  0  0  0  0  0  0  0  0
   10.9415   -1.3865    0.9925 H   0  0  0  0  0  0  0  0  0  0  0  0
    6.9228   -0.1920    1.7995 H   0  0  0  0  0  0  0  0  0  0  0  0
  1  2  2  0  0  0  0
  2  3  1  0  0  0  0
  2 16  1  0  0  0  0
  3  4  1  0  0  0  0
  3 37  1  0  0  0  0
  4  5  1  0  0  0  0
  4 15  2  0  0  0  0
  5  6  2  0  0  0  0
  5 38  1  0  0  0  0
  6  7  1  0  0  0  0
  6 39  1  0  0  0  0
  7  8  1  0  0  0  0
  7  9  2  0  0  0  0
  9 10  1  0  0  0  0
  9 15  1  0  0  0  0
 10 11  1  0  0  0  0
 11 12  1  0  0  0  0
 11 13  1  0  0  0  0
 11 14  1  0  0  0  0
 15 40  1  0  0  0  0
 16 17  1  0  0  0  0
 16 41  1  0  0  0  0
 17 18  1  0  0  0  0
 17 35  2  0  0  0  0
 18 19  2  0  0  0  0
 18 42  1  0  0  0  0
 19 20  1  0  0  0  0
 19 43  1  0  0  0  0
 20 21  1  0  0  0  0
 20 34  2  0  0  0  0
 21 22  1  0  0  0  0
 22 23  1  0  0  0  0
 22 33  2  0  0  0  0
 23 24  2  0  0  0  0
 23 44  1  0  0  0  0
 24 25  1  0  0  0  0
 24 45  1  0  0  0  0
 25 26  2  0  0  0  0
 26 27  1  0  0  0  0
 26 33  1  0  0  0  0
 27 28  1  0  0  0  0
 27 46  1  0  0  0  0
 28 29  2  0  0  0  0
 28 30  1  0  0  0  0
 30 31  1  0  0  0  0
 30 32  1  0  0  0  0
 30 47  1  0  0  0  0
 31 32  1  0  0  0  0
 31 48  1  0  0  0  0
 31 49  1  0  0  0  0
 32 50  1  0  0  0  0
 32 51  1  0  0  0  0
 33 52  1  0  0  0  0
 34 35  1  0  0  0  0
 34 53  1  0  0  0  0
 35 36  1  0  0  0  0
M  END
$$$$
