CHEMBL203394
 OpenBabel04072215363D

 44 47  0  0  0  0  0  0  0  0999 V2000
    2.1309    0.0308   -0.0019 C   0  0  0  0  0  0  0  0  0  0  0  0
    0.6916   -0.0822    0.0191 N   0  0  0  0  0  0  0  0  0  0  0  0
   -0.1820    0.9689    0.0919 C   0  0  0  0  0  0  0  0  0  0  0  0
   -1.4299    0.5591    0.1692 N   0  0  0  0  0  0  0  0  0  0  0  0
   -1.3549   -0.7972    0.0879 C   0  0  0  0  0  0  0  0  0  0  0  0
   -2.4377   -1.5886    0.1272 N   0  0  0  0  0  0  0  0  0  0  0  0
   -3.6721   -1.1488    0.7370 C   0  0  0  0  0  0  0  0  0  0  0  0
   -4.4699   -2.3516    1.2212 C   0  0  0  0  0  0  0  0  0  0  0  0
   -5.8717   -2.2680    1.2891 C   0  0  0  0  0  0  0  0  0  0  0  0
   -6.6306   -3.3448    1.7635 C   0  0  0  0  0  0  0  0  0  0  0  0
   -5.9919   -4.5077    2.1779 C   0  0  0  0  0  0  0  0  0  0  0  0
   -6.7244   -5.5371    2.6240 F   0  0  0  0  0  0  0  0  0  0  0  0
   -4.6085   -4.5990    2.1342 C   0  0  0  0  0  0  0  0  0  0  0  0
   -3.9920   -5.7220    2.5348 F   0  0  0  0  0  0  0  0  0  0  0  0
   -3.8450   -3.5287    1.6740 C   0  0  0  0  0  0  0  0  0  0  0  0
   -0.0537   -1.2365   -0.0031 C   0  0  0  0  0  0  0  0  0  0  0  0
    0.4601   -2.5622   -0.0322 C   0  0  0  0  0  0  0  0  0  0  0  0
    1.7430   -2.8607    0.0188 N   0  0  0  0  0  0  0  0  0  0  0  0
    1.8337   -4.2286   -0.0066 N   0  0  0  0  0  0  0  0  0  0  0  0
    0.6004   -4.6911   -0.0692 C   0  0  0  0  0  0  0  0  0  0  0  0
    0.1175   -5.9434   -0.1475 N   0  0  0  0  0  0  0  0  0  0  0  0
    0.8919   -7.1161   -0.1217 C   0  0  0  0  0  0  0  0  0  0  0  0
    2.1440   -7.1750    0.5095 C   0  0  0  0  0  0  0  0  0  0  0  0
    2.9451   -8.3171    0.4260 C   0  0  0  0  0  0  0  0  0  0  0  0
    2.5047   -9.4122   -0.3056 C   0  0  0  0  0  0  0  0  0  0  0  0
    3.5046  -10.8046   -0.4399 Cl  0  0  0  0  0  0  0  0  0  0  0  0
    1.2653   -9.3804   -0.9382 C   0  0  0  0  0  0  0  0  0  0  0  0
    0.4620   -8.2380   -0.8440 C   0  0  0  0  0  0  0  0  0  0  0  0
   -0.3246   -3.6914   -0.1007 O   0  0  0  0  0  0  0  0  0  0  0  0
    2.4175    1.0852    0.0070 H   0  0  0  0  0  0  0  0  0  0  0  0
    2.5066   -0.4415   -0.9131 H   0  0  0  0  0  0  0  0  0  0  0  0
    2.5331   -0.4605    0.8886 H   0  0  0  0  0  0  0  0  0  0  0  0
    0.1429    2.0018    0.0948 H   0  0  0  0  0  0  0  0  0  0  0  0
   -2.5586   -2.2681   -0.6167 H   0  0  0  0  0  0  0  0  0  0  0  0
   -4.2564   -0.5849    0.0008 H   0  0  0  0  0  0  0  0  0  0  0  0
   -3.4837   -0.5036    1.6046 H   0  0  0  0  0  0  0  0  0  0  0  0
   -6.3824   -1.3592    0.9777 H   0  0  0  0  0  0  0  0  0  0  0  0
   -7.7126   -3.2791    1.8162 H   0  0  0  0  0  0  0  0  0  0  0  0
   -2.7625   -3.6255    1.6745 H   0  0  0  0  0  0  0  0  0  0  0  0
   -0.8667   -6.0627   -0.3359 H   0  0  0  0  0  0  0  0  0  0  0  0
    2.5168   -6.3326    1.0862 H   0  0  0  0  0  0  0  0  0  0  0  0
    3.9101   -8.3281    0.9243 H   0  0  0  0  0  0  0  0  0  0  0  0
    0.9247  -10.2319   -1.5212 H   0  0  0  0  0  0  0  0  0  0  0  0
   -0.4888   -8.2235   -1.3706 H   0  0  0  0  0  0  0  0  0  0  0  0
  1  2  1  0  0  0  0
  1 30  1  0  0  0  0
  1 31  1  0  0  0  0
  1 32  1  0  0  0  0
  2  3  1  0  0  0  0
  2 16  1  0  0  0  0
  3  4  2  0  0  0  0
  3 33  1  0  0  0  0
  4  5  1  0  0  0  0
  5  6  1  0  0  0  0
  5 16  2  0  0  0  0
  6  7  1  0  0  0  0
  6 34  1  0  0  0  0
  7  8  1  0  0  0  0
  7 35  1  0  0  0  0
  7 36  1  0  0  0  0
  8  9  1  0  0  0  0
  8 15  2  0  0  0  0
  9 10  2  0  0  0  0
  9 37  1  0  0  0  0
 10 11  1  0  0  0  0
 10 38  1  0  0  0  0
 11 12  1  0  0  0  0
 11 13  2  0  0  0  0
 13 14  1  0  0  0  0
 13 15  1  0  0  0  0
 15 39  1  0  0  0  0
 16 17  1  0  0  0  0
 17 18  2  0  0  0  0
 17 29  1  0  0  0  0
 18 19  1  0  0  0  0
 19 20  2  0  0  0  0
 20 21  1  0  0  0  0
 20 29  1  0  0  0  0
 21 22  1  0  0  0  0
 21 40  1  0  0  0  0
 22 23  1  0  0  0  0
 22 28  2  0  0  0  0
 23 24  2  0  0  0  0
 23 41  1  0  0  0  0
 24 25  1  0  0  0  0
 24 42  1  0  0  0  0
 25 26  1  0  0  0  0
 25 27  2  0  0  0  0
 27 28  1  0  0  0  0
 27 43  1  0  0  0  0
 28 44  1  0  0  0  0
M  END
$$$$
