CHEMBL3671490
 OpenBabel04072215373D

 51 53  0  0  0  0  0  0  0  0999 V2000
    3.7289    3.8588   -0.8450 C   0  0  0  0  0  0  0  0  0  0  0  0
    3.6408    3.0255    0.2005 C   0  0  0  0  0  0  0  0  0  0  0  0
    3.7730    1.5642   -0.0341 C   0  0  0  0  0  0  0  0  0  0  0  0
    3.3750    1.0293   -1.0655 O   0  0  0  0  0  0  0  0  0  0  0  0
    4.4198    0.8245    0.9271 N   0  0  0  0  0  0  0  0  0  0  0  0
    5.2119    1.3947    1.9359 C   0  0  0  0  0  0  0  0  0  0  0  0
    6.4093    2.0104    1.5600 C   0  0  0  0  0  0  0  0  0  0  0  0
    7.1151    2.8187    2.4728 C   0  0  0  0  0  0  0  0  0  0  0  0
    8.2338    3.6027    2.1472 C   0  0  0  0  0  0  0  0  0  0  0  0
    8.6888    3.6707    0.8046 N   0  0  0  0  0  0  0  0  0  0  0  0
    9.5175    4.7023    0.2987 C   0  0  0  0  0  0  0  0  0  0  0  0
    9.2813    6.0462    0.6240 C   0  0  0  0  0  0  0  0  0  0  0  0
   10.1482    7.0510    0.1920 C   0  0  0  0  0  0  0  0  0  0  0  0
   11.2530    6.7183   -0.5894 C   0  0  0  0  0  0  0  0  0  0  0  0
   12.4689    8.0689   -1.1037 Br  0  0  0  0  0  0  0  0  0  0  0  0
   11.4753    5.3982   -0.9767 C   0  0  0  0  0  0  0  0  0  0  0  0
   10.6008    4.4075   -0.5377 C   0  0  0  0  0  0  0  0  0  0  0  0
   10.8238    3.1331   -0.8992 F   0  0  0  0  0  0  0  0  0  0  0  0
    8.8587    4.3606    3.0683 N   0  0  0  0  0  0  0  0  0  0  0  0
    8.3537    4.3588    4.3044 C   0  0  0  0  0  0  0  0  0  0  0  0
    7.2661    3.6946    4.7045 N   0  0  0  0  0  0  0  0  0  0  0  0
    6.6461    2.9445    3.7905 C   0  0  0  0  0  0  0  0  0  0  0  0
    5.4721    2.2944    4.1508 C   0  0  0  0  0  0  0  0  0  0  0  0
    4.7443    1.5096    3.2503 C   0  0  0  0  0  0  0  0  0  0  0  0
    3.5666    1.0016    3.7426 O   0  0  0  0  0  0  0  0  0  0  0  0
    3.2389   -0.3246    3.3052 C   0  0  0  0  0  0  0  0  0  0  0  0
    2.1256   -0.9207    4.1657 C   0  0  0  0  0  0  0  0  0  0  0  0
    2.5210   -1.0400    5.6355 C   0  0  0  0  0  0  0  0  0  0  0  0
    1.4539   -1.7137    6.3818 N   0  0  0  0  0  0  0  0  0  0  0  0
    1.7965   -1.8137    7.7944 C   0  0  0  0  0  0  0  0  0  0  0  0
    3.7088    4.9337   -0.7043 H   0  0  0  0  0  0  0  0  0  0  0  0
    3.8504    3.4833   -1.8572 H   0  0  0  0  0  0  0  0  0  0  0  0
    3.5463    3.3951    1.2131 H   0  0  0  0  0  0  0  0  0  0  0  0
    4.7637   -0.0341    0.5089 H   0  0  0  0  0  0  0  0  0  0  0  0
    6.7453    1.9290    0.5270 H   0  0  0  0  0  0  0  0  0  0  0  0
    8.9802    2.7555    0.4706 H   0  0  0  0  0  0  0  0  0  0  0  0
    8.4259    6.3148    1.2406 H   0  0  0  0  0  0  0  0  0  0  0  0
    9.9618    8.0797    0.4901 H   0  0  0  0  0  0  0  0  0  0  0  0
   12.3228    5.1223   -1.5948 H   0  0  0  0  0  0  0  0  0  0  0  0
    8.8686    4.9625    5.0419 H   0  0  0  0  0  0  0  0  0  0  0  0
    5.0922    2.4325    5.1616 H   0  0  0  0  0  0  0  0  0  0  0  0
    4.1247   -0.9670    3.3487 H   0  0  0  0  0  0  0  0  0  0  0  0
    2.8501   -0.2934    2.2853 H   0  0  0  0  0  0  0  0  0  0  0  0
    1.8765   -1.9102    3.7619 H   0  0  0  0  0  0  0  0  0  0  0  0
    1.2267   -0.2967    4.0817 H   0  0  0  0  0  0  0  0  0  0  0  0
    2.6907   -0.0408    6.0503 H   0  0  0  0  0  0  0  0  0  0  0  0
    3.4529   -1.6109    5.7194 H   0  0  0  0  0  0  0  0  0  0  0  0
    1.3043   -2.6492    6.0045 H   0  0  0  0  0  0  0  0  0  0  0  0
    1.9096   -0.8211    8.2419 H   0  0  0  0  0  0  0  0  0  0  0  0
    2.7204   -2.3818    7.9436 H   0  0  0  0  0  0  0  0  0  0  0  0
    0.9940   -2.3279    8.3320 H   0  0  0  0  0  0  0  0  0  0  0  0
  1  2  2  0  0  0  0
  1 31  1  0  0  0  0
  1 32  1  0  0  0  0
  2  3  1  0  0  0  0
  2 33  1  0  0  0  0
  3  4  2  0  0  0  0
  3  5  1  0  0  0  0
  5  6  1  0  0  0  0
  5 34  1  0  0  0  0
  6  7  1  0  0  0  0
  6 24  2  0  0  0  0
  7  8  2  0  0  0  0
  7 35  1  0  0  0  0
  8  9  1  0  0  0  0
  8 22  1  0  0  0  0
  9 10  1  0  0  0  0
  9 19  2  0  0  0  0
 10 11  1  0  0  0  0
 10 36  1  0  0  0  0
 11 12  1  0  0  0  0
 11 17  2  0  0  0  0
 12 13  2  0  0  0  0
 12 37  1  0  0  0  0
 13 14  1  0  0  0  0
 13 38  1  0  0  0  0
 14 15  1  0  0  0  0
 14 16  2  0  0  0  0
 16 17  1  0  0  0  0
 16 39  1  0  0  0  0
 17 18  1  0  0  0  0
 19 20  1  0  0  0  0
 20 21  2  0  0  0  0
 20 40  1  0  0  0  0
 21 22  1  0  0  0  0
 22 23  2  0  0  0  0
 23 24  1  0  0  0  0
 23 41  1  0  0  0  0
 24 25  1  0  0  0  0
 25 26  1  0  0  0  0
 26 27  1  0  0  0  0
 26 42  1  0  0  0  0
 26 43  1  0  0  0  0
 27 28  1  0  0  0  0
 27 44  1  0  0  0  0
 27 45  1  0  0  0  0
 28 29  1  0  0  0  0
 28 46  1  0  0  0  0
 28 47  1  0  0  0  0
 29 30  1  0  0  0  0
 29 48  1  0  0  0  0
 30 49  1  0  0  0  0
 30 50  1  0  0  0  0
 30 51  1  0  0  0  0
M  END
$$$$
