CHEMBL3114018
 OpenBabel04072215363D

 46 49  0  0  0  0  0  0  0  0999 V2000
    1.2804    0.3818    0.4580 C   0  0  0  0  0  0  0  0  0  0  0  0
    2.6339    0.0923   -0.0725 C   0  0  0  0  0  0  0  0  0  0  0  0
    3.4696   -0.9925    0.0375 C   0  0  0  0  0  0  0  0  0  0  0  0
    3.1979   -2.1638    0.7296 C   0  0  0  0  0  0  0  0  0  0  0  0
    4.2958   -3.0517    0.6738 C   0  0  0  0  0  0  0  0  0  0  0  0
    5.5535   -2.8099   -0.0037 C   0  0  0  0  0  0  0  0  0  0  0  0
    6.5748   -3.8004    0.1184 N   0  0  0  0  0  0  0  0  0  0  0  0
    7.9692   -3.3945   -0.0601 C   0  0  0  0  0  0  0  0  0  0  0  0
    6.3452   -5.1986    0.0805 C   0  0  0  0  0  0  0  0  0  0  0  0
    7.1798   -6.0951    0.7163 C   0  0  0  0  0  0  0  0  0  0  0  0
    6.8330   -7.4247    0.6464 C   0  0  0  0  0  0  0  0  0  0  0  0
    5.7533   -7.8815   -0.0079 N   0  0  0  0  0  0  0  0  0  0  0  0
    4.9841   -6.9596   -0.5991 C   0  0  0  0  0  0  0  0  0  0  0  0
    3.8268   -7.4307   -1.2161 N   0  0  0  0  0  0  0  0  0  0  0  0
    2.7325   -6.7468   -1.7622 C   0  0  0  0  0  0  0  0  0  0  0  0
    1.5005   -7.4139   -1.8705 C   0  0  0  0  0  0  0  0  0  0  0  0
    0.3574   -6.7587   -2.3437 C   0  0  0  0  0  0  0  0  0  0  0  0
    0.4315   -5.4222   -2.7220 C   0  0  0  0  0  0  0  0  0  0  0  0
    1.6450   -4.7580   -2.6273 C   0  0  0  0  0  0  0  0  0  0  0  0
    1.7197   -3.4704   -2.9909 F   0  0  0  0  0  0  0  0  0  0  0  0
    2.7830   -5.4045   -2.1570 C   0  0  0  0  0  0  0  0  0  0  0  0
    5.2546   -5.6499   -0.5619 N   0  0  0  0  0  0  0  0  0  0  0  0
    5.7502   -1.6011   -0.7237 C   0  0  0  0  0  0  0  0  0  0  0  0
    4.6791   -0.6832   -0.6771 C   0  0  0  0  0  0  0  0  0  0  0  0
    4.5705    0.5438   -1.2148 N   0  0  0  0  0  0  0  0  0  0  0  0
    3.3454    0.9775   -0.8453 N   0  0  0  0  0  0  0  0  0  0  0  0
    2.9105    2.2915   -1.2642 C   0  0  0  0  0  0  0  0  0  0  0  0
    0.8913   -0.4469    1.0562 H   0  0  0  0  0  0  0  0  0  0  0  0
    0.5748    0.5605   -0.3596 H   0  0  0  0  0  0  0  0  0  0  0  0
    1.3003    1.2703    1.0990 H   0  0  0  0  0  0  0  0  0  0  0  0
    2.2856   -2.3968    1.2588 H   0  0  0  0  0  0  0  0  0  0  0  0
    4.1774   -3.9962    1.2077 H   0  0  0  0  0  0  0  0  0  0  0  0
    8.1172   -2.3103   -0.0525 H   0  0  0  0  0  0  0  0  0  0  0  0
    8.3762   -3.7849   -1.0003 H   0  0  0  0  0  0  0  0  0  0  0  0
    8.5882   -3.7578    0.7676 H   0  0  0  0  0  0  0  0  0  0  0  0
    8.0421   -5.7910    1.2903 H   0  0  0  0  0  0  0  0  0  0  0  0
    7.4262   -8.1833    1.1487 H   0  0  0  0  0  0  0  0  0  0  0  0
    3.7357   -8.4224   -1.0577 H   0  0  0  0  0  0  0  0  0  0  0  0
    1.4140   -8.4535   -1.5623 H   0  0  0  0  0  0  0  0  0  0  0  0
   -0.5882   -7.2901   -2.4053 H   0  0  0  0  0  0  0  0  0  0  0  0
   -0.4415   -4.8925   -3.0868 H   0  0  0  0  0  0  0  0  0  0  0  0
    3.7019   -4.8297   -2.1150 H   0  0  0  0  0  0  0  0  0  0  0  0
    6.6373   -1.3624   -1.2889 H   0  0  0  0  0  0  0  0  0  0  0  0
    3.6862    2.7587   -1.8764 H   0  0  0  0  0  0  0  0  0  0  0  0
    2.7293    2.8962   -0.3717 H   0  0  0  0  0  0  0  0  0  0  0  0
    1.9935    2.1819   -1.8485 H   0  0  0  0  0  0  0  0  0  0  0  0
  1  2  1  0  0  0  0
  1 28  1  0  0  0  0
  1 29  1  0  0  0  0
  1 30  1  0  0  0  0
  2  3  2  0  0  0  0
  2 26  1  0  0  0  0
  3  4  1  0  0  0  0
  3 24  1  0  0  0  0
  4  5  2  0  0  0  0
  4 31  1  0  0  0  0
  5  6  1  0  0  0  0
  5 32  1  0  0  0  0
  6  7  1  0  0  0  0
  6 23  2  0  0  0  0
  7  8  1  0  0  0  0
  7  9  1  0  0  0  0
  8 33  1  0  0  0  0
  8 34  1  0  0  0  0
  8 35  1  0  0  0  0
  9 10  1  0  0  0  0
  9 22  2  0  0  0  0
 10 11  2  0  0  0  0
 10 36  1  0  0  0  0
 11 12  1  0  0  0  0
 11 37  1  0  0  0  0
 12 13  2  0  0  0  0
 13 14  1  0  0  0  0
 13 22  1  0  0  0  0
 14 15  1  0  0  0  0
 14 38  1  0  0  0  0
 15 16  1  0  0  0  0
 15 21  2  0  0  0  0
 16 17  2  0  0  0  0
 16 39  1  0  0  0  0
 17 18  1  0  0  0  0
 17 40  1  0  0  0  0
 18 19  2  0  0  0  0
 18 41  1  0  0  0  0
 19 20  1  0  0  0  0
 19 21  1  0  0  0  0
 21 42  1  0  0  0  0
 23 24  1  0  0  0  0
 23 43  1  0  0  0  0
 24 25  2  0  0  0  0
 25 26  1  0  0  0  0
 26 27  1  0  0  0  0
 27 44  1  0  0  0  0
 27 45  1  0  0  0  0
 27 46  1  0  0  0  0
M  END
$$$$
