CHEMBL3917483
 OpenBabel04072215373D

 83 87  0  0  0  0  0  0  0  0999 V2000
    7.8554  -10.3250    2.9332 C   0  0  0  0  0  0  0  0  0  0  0  0
    7.6591   -9.4219    4.1353 C   0  0  0  0  0  0  0  0  0  0  0  0
    7.3762   -8.1044    3.6466 O   0  0  0  0  0  0  0  0  0  0  0  0
    8.4846   -7.3444    3.3871 C   0  0  0  0  0  0  0  0  0  0  0  0
    9.6082   -7.6016    3.7969 O   0  0  0  0  0  0  0  0  0  0  0  0
    8.0806   -6.1922    2.4644 C   0  0  0  0  0  0  0  0  0  0  0  0
    9.2439   -5.4096    1.9818 N   0  0  0  0  0  0  0  0  0  0  0  0
    9.8723   -4.6207    3.0603 C   0  0  0  0  0  0  0  0  0  0  0  0
    8.9977   -3.4498    3.5627 C   0  0  0  0  0  0  0  0  0  0  0  0
    8.5515   -2.5123    2.5117 N   0  0  0  0  0  0  0  0  0  0  0  0
    9.6069   -1.5936    2.0669 C   0  0  0  0  0  0  0  0  0  0  0  0
   10.0832   -0.6627    3.1766 C   0  0  0  0  0  0  0  0  0  0  0  0
   11.1110    0.3117    2.6345 C   0  0  0  0  0  0  0  0  0  0  0  0
   11.5947    1.1598    3.6892 N   0  0  0  0  0  0  0  0  0  0  0  0
   12.5710    2.1028    3.4670 C   0  0  0  0  0  0  0  0  0  0  0  0
   13.0767    2.2591    2.3581 O   0  0  0  0  0  0  0  0  0  0  0  0
   12.9366    2.8956    4.6236 C   0  0  0  0  0  0  0  0  0  0  0  0
   13.8256    3.9463    4.6444 C   0  0  0  0  0  0  0  0  0  0  0  0
   13.9574    4.5266    5.9333 C   0  0  0  0  0  0  0  0  0  0  0  0
   14.7492    5.5909    6.2205 N   0  0  0  0  0  0  0  0  0  0  0  0
   14.7672    5.9726    7.5076 C   0  0  0  0  0  0  0  0  0  0  0  0
   14.0591    5.3656    8.5268 C   0  0  0  0  0  0  0  0  0  0  0  0
   13.1923    4.3121    8.2232 C   0  0  0  0  0  0  0  0  0  0  0  0
   12.4144    3.6601    9.1648 O   0  0  0  0  0  0  0  0  0  0  0  0
   11.8603    4.3944   10.1886 C   0  0  0  0  0  0  0  0  0  0  0  0
   11.4663    5.7174   10.0404 C   0  0  0  0  0  0  0  0  0  0  0  0
   11.0422    6.4424   11.1475 C   0  0  0  0  0  0  0  0  0  0  0  0
   10.9036    5.8466   12.4046 C   0  0  0  0  0  0  0  0  0  0  0  0
   10.4899    6.5697   13.5510 N   0  0  0  0  0  0  0  0  0  0  0  0
   10.1391    7.9042   13.5524 C   0  0  0  0  0  0  0  0  0  0  0  0
   10.1036    8.6232   12.5576 O   0  0  0  0  0  0  0  0  0  0  0  0
    9.8586    8.3978   14.8202 N   0  0  0  0  0  0  0  0  0  0  0  0
    9.5075    9.7757   14.9017 C   0  0  0  0  0  0  0  0  0  0  0  0
    8.5078   10.3071   14.0758 C   0  0  0  0  0  0  0  0  0  0  0  0
    8.3194   11.6903   13.9839 C   0  0  0  0  0  0  0  0  0  0  0  0
    7.3126   12.2557   13.0253 C   0  0  0  0  0  0  0  0  0  0  0  0
    9.1432   12.5376   14.7359 C   0  0  0  0  0  0  0  0  0  0  0  0
   10.0995   12.0080   15.6087 C   0  0  0  0  0  0  0  0  0  0  0  0
   10.2583   10.6301   15.7054 C   0  0  0  0  0  0  0  0  0  0  0  0
   11.2223   10.1288   16.4940 F   0  0  0  0  0  0  0  0  0  0  0  0
   11.1952    4.4834   12.5252 C   0  0  0  0  0  0  0  0  0  0  0  0
   11.6747    3.7606   11.4188 C   0  0  0  0  0  0  0  0  0  0  0  0
   13.1725    3.8798    6.8881 C   0  0  0  0  0  0  0  0  0  0  0  0
   12.2744    2.6045    6.1741 S   0  0  0  0  0  0  0  0  0  0  0  0
    8.0085   -3.2676    1.3584 C   0  0  0  0  0  0  0  0  0  0  0  0
    8.8499   -4.4853    0.9005 C   0  0  0  0  0  0  0  0  0  0  0  0
    8.0544  -11.3575    3.2451 H   0  0  0  0  0  0  0  0  0  0  0  0
    8.6870   -9.9789    2.3142 H   0  0  0  0  0  0  0  0  0  0  0  0
    6.9630  -10.3137    2.3001 H   0  0  0  0  0  0  0  0  0  0  0  0
    8.5296   -9.4395    4.8015 H   0  0  0  0  0  0  0  0  0  0  0  0
    6.7958   -9.7516    4.7232 H   0  0  0  0  0  0  0  0  0  0  0  0
    7.3329   -5.5763    2.9741 H   0  0  0  0  0  0  0  0  0  0  0  0
    7.6013   -6.6656    1.5980 H   0  0  0  0  0  0  0  0  0  0  0  0
   10.8266   -4.2299    2.6842 H   0  0  0  0  0  0  0  0  0  0  0  0
   10.1469   -5.2504    3.9120 H   0  0  0  0  0  0  0  0  0  0  0  0
    9.5322   -2.9364    4.3699 H   0  0  0  0  0  0  0  0  0  0  0  0
    8.1062   -3.8476    4.0550 H   0  0  0  0  0  0  0  0  0  0  0  0
    9.1979   -0.9574    1.2691 H   0  0  0  0  0  0  0  0  0  0  0  0
   10.4596   -2.1313    1.6356 H   0  0  0  0  0  0  0  0  0  0  0  0
   10.5487   -1.2194    3.9972 H   0  0  0  0  0  0  0  0  0  0  0  0
    9.2350   -0.1138    3.6063 H   0  0  0  0  0  0  0  0  0  0  0  0
   10.6868    0.9443    1.8470 H   0  0  0  0  0  0  0  0  0  0  0  0
   11.9708   -0.2225    2.2144 H   0  0  0  0  0  0  0  0  0  0  0  0
   11.1859    1.1041    4.6153 H   0  0  0  0  0  0  0  0  0  0  0  0
   14.3589    4.2906    3.7669 H   0  0  0  0  0  0  0  0  0  0  0  0
   15.3990    6.8331    7.7157 H   0  0  0  0  0  0  0  0  0  0  0  0
   14.1640    5.7416    9.5390 H   0  0  0  0  0  0  0  0  0  0  0  0
   11.5243    6.2299    9.0848 H   0  0  0  0  0  0  0  0  0  0  0  0
   10.8438    7.4917   10.9665 H   0  0  0  0  0  0  0  0  0  0  0  0
   10.3641    6.0589   14.4122 H   0  0  0  0  0  0  0  0  0  0  0  0
   10.5144    8.0893   15.5282 H   0  0  0  0  0  0  0  0  0  0  0  0
    7.9160    9.6415   13.4499 H   0  0  0  0  0  0  0  0  0  0  0  0
    6.6590   11.4744   12.6232 H   0  0  0  0  0  0  0  0  0  0  0  0
    7.8186   12.7400   12.1838 H   0  0  0  0  0  0  0  0  0  0  0  0
    6.6761   12.9875   13.5338 H   0  0  0  0  0  0  0  0  0  0  0  0
    9.0545   13.6172   14.6310 H   0  0  0  0  0  0  0  0  0  0  0  0
   10.7508   12.6630   16.1755 H   0  0  0  0  0  0  0  0  0  0  0  0
   11.0718    3.9667   13.4736 H   0  0  0  0  0  0  0  0  0  0  0  0
   11.9134    2.7053   11.5237 H   0  0  0  0  0  0  0  0  0  0  0  0
    7.8599   -2.5977    0.5012 H   0  0  0  0  0  0  0  0  0  0  0  0
    7.0035   -3.6125    1.6290 H   0  0  0  0  0  0  0  0  0  0  0  0
    9.7675   -4.1234    0.4182 H   0  0  0  0  0  0  0  0  0  0  0  0
    8.3091   -5.0295    0.1161 H   0  0  0  0  0  0  0  0  0  0  0  0
  1  2  1  0  0  0  0
  1 47  1  0  0  0  0
  1 48  1  0  0  0  0
  1 49  1  0  0  0  0
  2  3  1  0  0  0  0
  2 50  1  0  0  0  0
  2 51  1  0  0  0  0
  3  4  1  0  0  0  0
  4  5  2  0  0  0  0
  4  6  1  0  0  0  0
  6  7  1  0  0  0  0
  6 52  1  0  0  0  0
  6 53  1  0  0  0  0
  7  8  1  0  0  0  0
  7 46  1  0  0  0  0
  8  9  1  0  0  0  0
  8 54  1  0  0  0  0
  8 55  1  0  0  0  0
  9 10  1  0  0  0  0
  9 56  1  0  0  0  0
  9 57  1  0  0  0  0
 10 11  1  0  0  0  0
 10 45  1  0  0  0  0
 11 12  1  0  0  0  0
 11 58  1  0  0  0  0
 11 59  1  0  0  0  0
 12 13  1  0  0  0  0
 12 60  1  0  0  0  0
 12 61  1  0  0  0  0
 13 14  1  0  0  0  0
 13 62  1  0  0  0  0
 13 63  1  0  0  0  0
 14 15  1  0  0  0  0
 14 64  1  0  0  0  0
 15 16  2  0  0  0  0
 15 17  1  0  0  0  0
 17 18  2  0  0  0  0
 17 44  1  0  0  0  0
 18 19  1  0  0  0  0
 18 65  1  0  0  0  0
 19 20  1  0  0  0  0
 19 43  2  0  0  0  0
 20 21  2  0  0  0  0
 21 22  1  0  0  0  0
 21 66  1  0  0  0  0
 22 23  2  0  0  0  0
 22 67  1  0  0  0  0
 23 24  1  0  0  0  0
 23 43  1  0  0  0  0
 24 25  1  0  0  0  0
 25 26  1  0  0  0  0
 25 42  2  0  0  0  0
 26 27  2  0  0  0  0
 26 68  1  0  0  0  0
 27 28  1  0  0  0  0
 27 69  1  0  0  0  0
 28 29  1  0  0  0  0
 28 41  2  0  0  0  0
 29 30  1  0  0  0  0
 29 70  1  0  0  0  0
 30 31  2  0  0  0  0
 30 32  1  0  0  0  0
 32 33  1  0  0  0  0
 32 71  1  0  0  0  0
 33 34  1  0  0  0  0
 33 39  2  0  0  0  0
 34 35  2  0  0  0  0
 34 72  1  0  0  0  0
 35 36  1  0  0  0  0
 35 37  1  0  0  0  0
 36 73  1  0  0  0  0
 36 74  1  0  0  0  0
 36 75  1  0  0  0  0
 37 38  2  0  0  0  0
 37 76  1  0  0  0  0
 38 39  1  0  0  0  0
 38 77  1  0  0  0  0
 39 40  1  0  0  0  0
 41 42  1  0  0  0  0
 41 78  1  0  0  0  0
 42 79  1  0  0  0  0
 43 44  1  0  0  0  0
 45 46  1  0  0  0  0
 45 80  1  0  0  0  0
 45 81  1  0  0  0  0
 46 82  1  0  0  0  0
 46 83  1  0  0  0  0
M  END
$$$$
