CHEMBL4522385
 OpenBabel04072215383D

 54 58  0  0  0  0  0  0  0  0999 V2000
    5.2345   -9.1946   -3.7799 C   0  0  0  0  0  0  0  0  0  0  0  0
    4.6050   -8.1415   -3.0546 O   0  0  0  0  0  0  0  0  0  0  0  0
    4.7538   -6.8742   -3.5455 C   0  0  0  0  0  0  0  0  0  0  0  0
    5.4417   -6.5239   -4.7023 C   0  0  0  0  0  0  0  0  0  0  0  0
    5.5402   -5.1759   -5.0752 C   0  0  0  0  0  0  0  0  0  0  0  0
    6.2261   -4.8727   -6.1816 F   0  0  0  0  0  0  0  0  0  0  0  0
    4.9615   -4.1574   -4.3238 C   0  0  0  0  0  0  0  0  0  0  0  0
    5.1741   -2.7083   -4.6822 C   0  0  0  0  0  0  0  0  0  0  0  0
    4.4602   -2.2192   -5.9332 C   0  0  0  0  0  0  0  0  0  0  0  0
    3.3922   -1.6148   -5.8536 O   0  0  0  0  0  0  0  0  0  0  0  0
    5.1111   -2.5122   -7.1274 N   0  0  0  0  0  0  0  0  0  0  0  0
    4.6051   -2.1118   -8.3856 C   0  0  0  0  0  0  0  0  0  0  0  0
    4.1125   -0.8252   -8.6151 C   0  0  0  0  0  0  0  0  0  0  0  0
    3.5399   -0.4877   -9.8528 C   0  0  0  0  0  0  0  0  0  0  0  0
    3.4195   -1.4498  -10.8655 C   0  0  0  0  0  0  0  0  0  0  0  0
    2.7125   -1.1433  -12.0725 N   0  0  0  0  0  0  0  0  0  0  0  0
    2.7199    0.0809  -12.7041 C   0  0  0  0  0  0  0  0  0  0  0  0
    1.9618    0.0391  -13.8390 C   0  0  0  0  0  0  0  0  0  0  0  0
    1.4092   -1.2279  -13.9397 C   0  0  0  0  0  0  0  0  0  0  0  0
    0.5802   -1.6906  -14.8947 N   0  0  0  0  0  0  0  0  0  0  0  0
    0.1998   -2.9492  -14.6943 C   0  0  0  0  0  0  0  0  0  0  0  0
    0.5466   -3.7507  -13.6777 N   0  0  0  0  0  0  0  0  0  0  0  0
    1.3734   -3.2824  -12.7214 C   0  0  0  0  0  0  0  0  0  0  0  0
    1.6050   -4.1682  -11.6802 N   0  0  0  0  0  0  0  0  0  0  0  0
    1.8658   -1.9795  -12.8409 C   0  0  0  0  0  0  0  0  0  0  0  0
    2.0057    1.2984  -14.6029 C   0  0  0  0  0  0  0  0  0  0  0  0
    3.2471    1.9978  -13.9646 C   0  0  0  0  0  0  0  0  0  0  0  0
    3.4442    1.3650  -12.5413 C   0  0  0  0  0  0  0  0  0  0  0  0
    3.9896   -2.7104  -10.6576 C   0  0  0  0  0  0  0  0  0  0  0  0
    4.5930   -3.0342   -9.4312 C   0  0  0  0  0  0  0  0  0  0  0  0
    4.2620   -4.5322   -3.1748 C   0  0  0  0  0  0  0  0  0  0  0  0
    3.7022   -3.5954   -2.3965 F   0  0  0  0  0  0  0  0  0  0  0  0
    4.1555   -5.8690   -2.7843 C   0  0  0  0  0  0  0  0  0  0  0  0
    4.9674  -10.1426   -3.3030 H   0  0  0  0  0  0  0  0  0  0  0  0
    6.3252   -9.0969   -3.7442 H   0  0  0  0  0  0  0  0  0  0  0  0
    4.8763   -9.2339   -4.8140 H   0  0  0  0  0  0  0  0  0  0  0  0
    5.9328   -7.2550   -5.3307 H   0  0  0  0  0  0  0  0  0  0  0  0
    6.2495   -2.5141   -4.7760 H   0  0  0  0  0  0  0  0  0  0  0  0
    4.8366   -2.0672   -3.8571 H   0  0  0  0  0  0  0  0  0  0  0  0
    5.7020   -3.3380   -7.1132 H   0  0  0  0  0  0  0  0  0  0  0  0
    4.1639   -0.0691   -7.8340 H   0  0  0  0  0  0  0  0  0  0  0  0
    3.1334    0.5135   -9.9645 H   0  0  0  0  0  0  0  0  0  0  0  0
   -0.4775   -3.3705  -15.4299 H   0  0  0  0  0  0  0  0  0  0  0  0
    0.9501   -4.9404  -11.7616 H   0  0  0  0  0  0  0  0  0  0  0  0
    1.6240   -3.7304  -10.7679 H   0  0  0  0  0  0  0  0  0  0  0  0
    1.0994    1.8895  -14.4351 H   0  0  0  0  0  0  0  0  0  0  0  0
    2.1441    1.1429  -15.6766 H   0  0  0  0  0  0  0  0  0  0  0  0
    3.1373    3.0861  -13.9297 H   0  0  0  0  0  0  0  0  0  0  0  0
    4.1306    1.7754  -14.5784 H   0  0  0  0  0  0  0  0  0  0  0  0
    2.9643    1.9982  -11.7890 H   0  0  0  0  0  0  0  0  0  0  0  0
    4.5058    1.2449  -12.3129 H   0  0  0  0  0  0  0  0  0  0  0  0
    3.9833   -3.4663  -11.4397 H   0  0  0  0  0  0  0  0  0  0  0  0
    4.9836   -4.0384   -9.2886 H   0  0  0  0  0  0  0  0  0  0  0  0
    3.6152   -6.1170   -1.8731 H   0  0  0  0  0  0  0  0  0  0  0  0
  1  2  1  0  0  0  0
  1 34  1  0  0  0  0
  1 35  1  0  0  0  0
  1 36  1  0  0  0  0
  2  3  1  0  0  0  0
  3  4  1  0  0  0  0
  3 33  2  0  0  0  0
  4  5  2  0  0  0  0
  4 37  1  0  0  0  0
  5  6  1  0  0  0  0
  5  7  1  0  0  0  0
  7  8  1  0  0  0  0
  7 31  2  0  0  0  0
  8  9  1  0  0  0  0
  8 38  1  0  0  0  0
  8 39  1  0  0  0  0
  9 10  2  0  0  0  0
  9 11  1  0  0  0  0
 11 12  1  0  0  0  0
 11 40  1  0  0  0  0
 12 13  1  0  0  0  0
 12 30  2  0  0  0  0
 13 14  2  0  0  0  0
 13 41  1  0  0  0  0
 14 15  1  0  0  0  0
 14 42  1  0  0  0  0
 15 16  1  0  0  0  0
 15 29  2  0  0  0  0
 16 17  1  0  0  0  0
 16 25  1  0  0  0  0
 17 18  2  0  0  0  0
 17 28  1  0  0  0  0
 18 19  1  0  0  0  0
 18 26  1  0  0  0  0
 19 20  1  0  0  0  0
 19 25  2  0  0  0  0
 20 21  2  0  0  0  0
 21 22  1  0  0  0  0
 21 43  1  0  0  0  0
 22 23  2  0  0  0  0
 23 24  1  0  0  0  0
 23 25  1  0  0  0  0
 24 44  1  0  0  0  0
 24 45  1  0  0  0  0
 26 27  1  0  0  0  0
 26 46  1  0  0  0  0
 26 47  1  0  0  0  0
 27 28  1  0  0  0  0
 27 48  1  0  0  0  0
 27 49  1  0  0  0  0
 28 50  1  0  0  0  0
 28 51  1  0  0  0  0
 29 30  1  0  0  0  0
 29 52  1  0  0  0  0
 30 53  1  0  0  0  0
 31 32  1  0  0  0  0
 31 33  1  0  0  0  0
 33 54  1  0  0  0  0
M  END
$$$$
