CHEMBL3577122
 OpenBabel04072215363D

 57 59  0  0  0  0  0  0  0  0999 V2000
    2.4152    1.4203   -0.2917 C   0  0  0  0  0  0  0  0  0  0  0  0
    1.2870    0.4270   -0.1576 C   0  0  0  0  0  0  0  0  0  0  0  0
   -0.0141    0.9763   -0.1482 C   0  0  0  0  0  0  0  0  0  0  0  0
   -1.1279    0.1601   -0.0498 C   0  0  0  0  0  0  0  0  0  0  0  0
   -2.3515    0.7080   -0.0849 F   0  0  0  0  0  0  0  0  0  0  0  0
   -0.9781   -1.1985    0.1679 C   0  0  0  0  0  0  0  0  0  0  0  0
   -2.1277   -1.9903    0.2732 N   0  0  0  0  0  0  0  0  0  0  0  0
   -2.4002   -3.0038    1.1400 C   0  0  0  0  0  0  0  0  0  0  0  0
   -3.4097   -3.6844    0.9793 O   0  0  0  0  0  0  0  0  0  0  0  0
   -1.5901   -3.1061    2.2369 N   0  0  0  0  0  0  0  0  0  0  0  0
   -1.8434   -4.0985    3.2535 C   0  0  0  0  0  0  0  0  0  0  0  0
   -1.2822   -3.6932    4.6187 C   0  0  0  0  0  0  0  0  0  0  0  0
   -1.6108   -4.6981    5.7565 C   0  0  0  0  0  0  0  0  0  0  0  0
   -0.9957   -6.0753    5.4607 C   0  0  0  0  0  0  0  0  0  0  0  0
   -1.0151   -4.1735    7.0787 C   0  0  0  0  0  0  0  0  0  0  0  0
   -3.1339   -4.8483    5.9456 C   0  0  0  0  0  0  0  0  0  0  0  0
    0.3074   -1.7524    0.2032 C   0  0  0  0  0  0  0  0  0  0  0  0
    1.4692   -0.9821   -0.0325 C   0  0  0  0  0  0  0  0  0  0  0  0
    2.7924   -1.6801   -0.1390 C   0  0  0  0  0  0  0  0  0  0  0  0
    3.9150   -1.1763    0.5263 C   0  0  0  0  0  0  0  0  0  0  0  0
    5.1727   -1.7966    0.4075 C   0  0  0  0  0  0  0  0  0  0  0  0
    6.3360   -1.2876    0.9576 C   0  0  0  0  0  0  0  0  0  0  0  0
    7.5189   -1.9162    0.8903 N   0  0  0  0  0  0  0  0  0  0  0  0
    7.5175   -3.0954    0.2675 C   0  0  0  0  0  0  0  0  0  0  0  0
    8.6991   -3.8007    0.2622 N   0  0  0  0  0  0  0  0  0  0  0  0
    6.4685   -3.6281   -0.3542 N   0  0  0  0  0  0  0  0  0  0  0  0
    5.3072   -2.9780   -0.2917 C   0  0  0  0  0  0  0  0  0  0  0  0
    4.2494   -3.4868   -0.9201 N   0  0  0  0  0  0  0  0  0  0  0  0
    3.0324   -2.8570   -0.8772 C   0  0  0  0  0  0  0  0  0  0  0  0
    1.9941   -3.5483   -1.7212 C   0  0  0  0  0  0  0  0  0  0  0  0
    2.0404    2.4159   -0.5573 H   0  0  0  0  0  0  0  0  0  0  0  0
    3.1136    1.1218   -1.0770 H   0  0  0  0  0  0  0  0  0  0  0  0
    2.9355    1.5402    0.6634 H   0  0  0  0  0  0  0  0  0  0  0  0
   -0.1747    2.0489   -0.2301 H   0  0  0  0  0  0  0  0  0  0  0  0
   -2.9611   -1.6692   -0.2081 H   0  0  0  0  0  0  0  0  0  0  0  0
   -0.7417   -2.5692    2.2821 H   0  0  0  0  0  0  0  0  0  0  0  0
   -1.3836   -5.0242    2.8979 H   0  0  0  0  0  0  0  0  0  0  0  0
   -2.9236   -4.2543    3.3113 H   0  0  0  0  0  0  0  0  0  0  0  0
   -1.6710   -2.7003    4.8850 H   0  0  0  0  0  0  0  0  0  0  0  0
   -0.1929   -3.5737    4.5349 H   0  0  0  0  0  0  0  0  0  0  0  0
    0.0912   -6.0040    5.3410 H   0  0  0  0  0  0  0  0  0  0  0  0
   -1.4056   -6.5160    4.5458 H   0  0  0  0  0  0  0  0  0  0  0  0
   -1.1970   -6.7807    6.2739 H   0  0  0  0  0  0  0  0  0  0  0  0
    0.0740   -4.0755    7.0149 H   0  0  0  0  0  0  0  0  0  0  0  0
   -1.2386   -4.8561    7.9074 H   0  0  0  0  0  0  0  0  0  0  0  0
   -1.4271   -3.1921    7.3391 H   0  0  0  0  0  0  0  0  0  0  0  0
   -3.6120   -5.2824    5.0627 H   0  0  0  0  0  0  0  0  0  0  0  0
   -3.5996   -3.8726    6.1320 H   0  0  0  0  0  0  0  0  0  0  0  0
   -3.3651   -5.4983    6.7917 H   0  0  0  0  0  0  0  0  0  0  0  0
    0.3973   -2.8231    0.3645 H   0  0  0  0  0  0  0  0  0  0  0  0
    3.8372   -0.2943    1.1532 H   0  0  0  0  0  0  0  0  0  0  0  0
    6.3548   -0.3325    1.4735 H   0  0  0  0  0  0  0  0  0  0  0  0
    9.4864   -3.1801    0.3825 H   0  0  0  0  0  0  0  0  0  0  0  0
    8.7229   -4.4606   -0.5012 H   0  0  0  0  0  0  0  0  0  0  0  0
    2.4503   -4.3608   -2.2992 H   0  0  0  0  0  0  0  0  0  0  0  0
    1.5404   -2.8538   -2.4328 H   0  0  0  0  0  0  0  0  0  0  0  0
    1.2245   -4.0192   -1.1051 H   0  0  0  0  0  0  0  0  0  0  0  0
  1  2  1  0  0  0  0
  1 31  1  0  0  0  0
  1 32  1  0  0  0  0
  1 33  1  0  0  0  0
  2  3  1  0  0  0  0
  2 18  2  0  0  0  0
  3  4  2  0  0  0  0
  3 34  1  0  0  0  0
  4  5  1  0  0  0  0
  4  6  1  0  0  0  0
  6  7  1  0  0  0  0
  6 17  2  0  0  0  0
  7  8  1  0  0  0  0
  7 35  1  0  0  0  0
  8  9  2  0  0  0  0
  8 10  1  0  0  0  0
 10 11  1  0  0  0  0
 10 36  1  0  0  0  0
 11 12  1  0  0  0  0
 11 37  1  0  0  0  0
 11 38  1  0  0  0  0
 12 13  1  0  0  0  0
 12 39  1  0  0  0  0
 12 40  1  0  0  0  0
 13 14  1  0  0  0  0
 13 15  1  0  0  0  0
 13 16  1  0  0  0  0
 14 41  1  0  0  0  0
 14 42  1  0  0  0  0
 14 43  1  0  0  0  0
 15 44  1  0  0  0  0
 15 45  1  0  0  0  0
 15 46  1  0  0  0  0
 16 47  1  0  0  0  0
 16 48  1  0  0  0  0
 16 49  1  0  0  0  0
 17 18  1  0  0  0  0
 17 50  1  0  0  0  0
 18 19  1  0  0  0  0
 19 20  1  0  0  0  0
 19 29  2  0  0  0  0
 20 21  2  0  0  0  0
 20 51  1  0  0  0  0
 21 22  1  0  0  0  0
 21 27  1  0  0  0  0
 22 23  2  0  0  0  0
 22 52  1  0  0  0  0
 23 24  1  0  0  0  0
 24 25  1  0  0  0  0
 24 26  2  0  0  0  0
 25 53  1  0  0  0  0
 25 54  1  0  0  0  0
 26 27  1  0  0  0  0
 27 28  2  0  0  0  0
 28 29  1  0  0  0  0
 29 30  1  0  0  0  0
 30 55  1  0  0  0  0
 30 56  1  0  0  0  0
 30 57  1  0  0  0  0
M  END
$$$$
