CHEMBL1082756
 OpenBabel04072215363D

 68 74  0  0  1  0  0  0  0  0999 V2000
    5.2394   -2.4965   -2.2798 C   0  0  0  0  0  0  0  0  0  0  0  0
    4.7409   -1.6776   -1.1042 C   0  0  0  0  0  0  0  0  0  0  0  0
    5.2476   -2.2257    0.1192 O   0  0  0  0  0  0  0  0  0  0  0  0
    4.8519   -1.4320    1.2428 C   0  0  0  0  0  0  0  0  0  0  0  0
    5.3973   -1.9693    2.5822 C   0  0  0  0  0  0  0  0  0  0  0  0
    6.8392   -1.8534    2.7848 N   0  0  0  0  0  0  0  0  0  0  0  0
    7.5575   -0.6341    2.7402 C   0  0  0  0  0  0  0  0  0  0  0  0
    7.1585    0.7107    2.6160 C   0  0  0  0  0  0  0  0  0  0  0  0
    8.1588    1.7062    2.5063 C   0  0  0  0  0  0  0  0  0  0  0  0
    9.5320    1.4114    2.5527 C   0  0  0  0  0  0  0  0  0  0  0  0
   10.5954    2.5073    2.5653 C   0  0  3  0  0  0  0  0  0  0  0  0
   10.6377    3.4118    1.3249 C   0  0  0  0  0  0  0  0  0  0  0  0
   11.5916    2.9213    0.2440 C   0  0  0  0  0  0  0  0  0  0  0  0
   12.9590    2.6651    0.8530 C   0  0  0  0  0  0  0  0  0  0  0  0
   12.8184    1.6493    1.9682 C   0  0  0  0  0  0  0  0  0  0  0  0
   11.9045    2.0683    2.9805 O   0  0  0  0  0  0  0  0  0  0  0  0
    9.8911    0.0752    2.6922 C   0  0  0  0  0  0  0  0  0  0  0  0
    8.9242   -0.9413    2.7585 C   0  0  0  0  0  0  0  0  0  0  0  0
    8.9258   -2.3135    2.7676 C   0  0  0  0  0  0  0  0  0  0  0  0
   10.0334   -3.0543    2.3399 C   0  0  0  0  0  0  0  0  0  0  0  0
    9.7355   -4.3422    1.8572 C   0  0  0  0  0  0  0  0  0  0  0  0
    8.4750   -4.9547    1.9822 C   0  0  0  0  0  0  0  0  0  0  0  0
    7.6531   -4.3408    2.9892 C   0  0  0  0  0  0  0  0  0  0  0  0
    7.7226   -2.9283    2.9496 C   0  0  0  0  0  0  0  0  0  0  0  0
    7.7301   -5.1680    4.3574 C   0  0  0  0  0  0  0  0  0  0  0  0
    8.7962   -6.3453    4.3751 C   0  0  0  0  0  0  0  0  0  0  0  0
    8.5924   -7.1201    3.1229 C   0  0  0  0  0  0  0  0  0  0  0  0
    8.2352   -8.3976    3.0020 N   0  0  0  0  0  0  0  0  0  0  0  0
    7.7523   -8.4466    1.7339 N   0  0  0  0  0  0  0  0  0  0  0  0
    7.1026   -9.6451    1.2624 C   0  0  0  0  0  0  0  0  0  0  0  0
    7.7334   -7.2269    1.1033 C   0  0  0  0  0  0  0  0  0  0  0  0
    8.4282   -6.3919    1.9354 C   0  0  0  0  0  0  0  0  0  0  0  0
   10.9787   -4.9039    1.3922 C   0  0  0  0  0  0  0  0  0  0  0  0
   11.2736   -5.9667    0.8684 O   0  0  0  0  0  0  0  0  0  0  0  0
   11.9360   -3.9424    1.6787 N   0  0  0  0  0  0  0  0  0  0  0  0
   11.4384   -2.6975    2.2090 C   0  0  0  0  0  0  0  0  0  0  0  0
    4.8861   -2.0729   -3.2258 H   0  0  0  0  0  0  0  0  0  0  0  0
    4.8890   -3.5310   -2.2091 H   0  0  0  0  0  0  0  0  0  0  0  0
    6.3335   -2.5256   -2.2968 H   0  0  0  0  0  0  0  0  0  0  0  0
    3.6449   -1.6914   -1.0866 H   0  0  0  0  0  0  0  0  0  0  0  0
    5.0789   -0.6408   -1.2171 H   0  0  0  0  0  0  0  0  0  0  0  0
    3.7551   -1.4459    1.2912 H   0  0  0  0  0  0  0  0  0  0  0  0
    5.1583   -0.3964    1.0715 H   0  0  0  0  0  0  0  0  0  0  0  0
    5.1247   -3.0231    2.6956 H   0  0  0  0  0  0  0  0  0  0  0  0
    4.9350   -1.4086    3.4041 H   0  0  0  0  0  0  0  0  0  0  0  0
    6.1120    0.9965    2.5921 H   0  0  0  0  0  0  0  0  0  0  0  0
    7.8372    2.7425    2.4064 H   0  0  0  0  0  0  0  0  0  0  0  0
   10.2771    3.1454    3.3998 H   0  0  0  0  0  0  0  0  0  0  0  0
   11.0071    4.3937    1.6516 H   0  0  0  0  0  0  0  0  0  0  0  0
    9.6421    3.5787    0.9024 H   0  0  0  0  0  0  0  0  0  0  0  0
   11.6746    3.6720   -0.5497 H   0  0  0  0  0  0  0  0  0  0  0  0
   11.2064    2.0029   -0.2142 H   0  0  0  0  0  0  0  0  0  0  0  0
   13.3595    3.6030    1.2580 H   0  0  0  0  0  0  0  0  0  0  0  0
   13.6604    2.3078    0.0920 H   0  0  0  0  0  0  0  0  0  0  0  0
   13.7916    1.5066    2.4518 H   0  0  0  0  0  0  0  0  0  0  0  0
   12.5253    0.6753    1.5629 H   0  0  0  0  0  0  0  0  0  0  0  0
   10.9341   -0.1893    2.7858 H   0  0  0  0  0  0  0  0  0  0  0  0
    6.7408   -5.6053    4.5315 H   0  0  0  0  0  0  0  0  0  0  0  0
    7.9645   -4.4866    5.1829 H   0  0  0  0  0  0  0  0  0  0  0  0
    8.7109   -6.9718    5.2670 H   0  0  0  0  0  0  0  0  0  0  0  0
    9.8150   -5.9262    4.3704 H   0  0  0  0  0  0  0  0  0  0  0  0
    7.3465  -10.4772    1.9271 H   0  0  0  0  0  0  0  0  0  0  0  0
    7.4551   -9.8573    0.2506 H   0  0  0  0  0  0  0  0  0  0  0  0
    6.0240   -9.4669    1.2638 H   0  0  0  0  0  0  0  0  0  0  0  0
    7.1895   -7.0623    0.1837 H   0  0  0  0  0  0  0  0  0  0  0  0
   12.9071   -4.1307    1.4872 H   0  0  0  0  0  0  0  0  0  0  0  0
   11.6142   -1.9143    1.4718 H   0  0  0  0  0  0  0  0  0  0  0  0
   11.9077   -2.4805    3.1724 H   0  0  0  0  0  0  0  0  0  0  0  0
  1  2  1  0  0  0  0
  1 37  1  0  0  0  0
  1 38  1  0  0  0  0
  1 39  1  0  0  0  0
  2  3  1  0  0  0  0
  2 40  1  0  0  0  0
  2 41  1  0  0  0  0
  3  4  1  0  0  0  0
  4  5  1  0  0  0  0
  4 42  1  0  0  0  0
  4 43  1  0  0  0  0
  5  6  1  0  0  0  0
  5 44  1  0  0  0  0
  5 45  1  0  0  0  0
  6  7  1  0  0  0  0
  6 24  1  0  0  0  0
  7  8  1  0  0  0  0
  7 18  2  0  0  0  0
  8  9  2  0  0  0  0
  8 46  1  0  0  0  0
  9 10  1  0  0  0  0
  9 47  1  0  0  0  0
 10 11  1  0  0  0  0
 10 17  2  0  0  0  0
 11 12  1  0  0  0  0
 11 16  1  0  0  0  0
 11 48  1  0  0  0  0
 12 13  1  0  0  0  0
 12 49  1  0  0  0  0
 12 50  1  0  0  0  0
 13 14  1  0  0  0  0
 13 51  1  0  0  0  0
 13 52  1  0  0  0  0
 14 15  1  0  0  0  0
 14 53  1  0  0  0  0
 14 54  1  0  0  0  0
 15 16  1  0  0  0  0
 15 55  1  0  0  0  0
 15 56  1  0  0  0  0
 17 18  1  0  0  0  0
 17 57  1  0  0  0  0
 18 19  1  0  0  0  0
 19 20  1  0  0  0  0
 19 24  2  0  0  0  0
 20 21  2  0  0  0  0
 20 36  1  0  0  0  0
 21 22  1  0  0  0  0
 21 33  1  0  0  0  0
 22 23  2  0  0  0  0
 22 32  1  0  0  0  0
 23 24  1  0  0  0  0
 23 25  1  0  0  0  0
 25 26  1  0  0  0  0
 25 58  1  0  0  0  0
 25 59  1  0  0  0  0
 26 27  1  0  0  0  0
 26 60  1  0  0  0  0
 26 61  1  0  0  0  0
 27 28  2  0  0  0  0
 27 32  1  0  0  0  0
 28 29  1  0  0  0  0
 29 30  1  0  0  0  0
 29 31  1  0  0  0  0
 30 62  1  0  0  0  0
 30 63  1  0  0  0  0
 30 64  1  0  0  0  0
 31 32  2  0  0  0  0
 31 65  1  0  0  0  0
 33 34  2  0  0  0  0
 33 35  1  0  0  0  0
 35 36  1  0  0  0  0
 35 66  1  0  0  0  0
 36 67  1  0  0  0  0
 36 68  1  0  0  0  0
M  END
$$$$
