CHEMBL1254356
 OpenBabel04072215363D

 53 56  0  0  0  0  0  0  0  0999 V2000
    3.7078   -0.8577   -1.1374 C   0  0  0  0  0  0  0  0  0  0  0  0
    3.4920   -0.5250    0.2528 N   0  0  0  0  0  0  0  0  0  0  0  0
    4.0886    0.5320    0.9025 C   0  0  0  0  0  0  0  0  0  0  0  0
    3.6308    0.5396    2.2022 C   0  0  0  0  0  0  0  0  0  0  0  0
    2.7322   -0.5422    2.3409 C   0  0  0  0  0  0  0  0  0  0  0  0
    2.0425   -0.9336    3.4325 N   0  0  0  0  0  0  0  0  0  0  0  0
    1.2627   -1.9987    3.2152 C   0  0  0  0  0  0  0  0  0  0  0  0
    1.1139   -2.6893    2.0735 N   0  0  0  0  0  0  0  0  0  0  0  0
    1.8507   -2.3167    1.0022 C   0  0  0  0  0  0  0  0  0  0  0  0
    1.7707   -3.0438   -0.1817 O   0  0  0  0  0  0  0  0  0  0  0  0
    1.5894   -4.4062   -0.0750 C   0  0  0  0  0  0  0  0  0  0  0  0
    2.1266   -5.1630    0.9617 C   0  0  0  0  0  0  0  0  0  0  0  0
    1.8943   -6.5350    1.0294 C   0  0  0  0  0  0  0  0  0  0  0  0
    1.1550   -7.2000    0.0477 C   0  0  0  0  0  0  0  0  0  0  0  0
    0.9138   -8.6022    0.0998 N   0  0  0  0  0  0  0  0  0  0  0  0
    1.3128   -9.4495    1.1137 C   0  0  0  0  0  0  0  0  0  0  0  0
    1.8715   -9.0785    2.1438 O   0  0  0  0  0  0  0  0  0  0  0  0
    1.0541  -10.7818    0.8508 N   0  0  0  0  0  0  0  0  0  0  0  0
    1.4180  -11.7681    1.7584 C   0  0  0  0  0  0  0  0  0  0  0  0
    1.7813  -11.6647    3.1187 C   0  0  0  0  0  0  0  0  0  0  0  0
    2.1099  -12.8387    3.6551 N   0  0  0  0  0  0  0  0  0  0  0  0
    1.9883  -13.7064    2.6342 N   0  0  0  0  0  0  0  0  0  0  0  0
    2.3374  -15.1244    2.8370 C   0  0  0  0  0  0  0  0  0  0  0  0
    2.8183  -15.3901    4.2841 C   0  0  0  0  0  0  0  0  0  0  0  0
    1.0984  -15.9946    2.5711 C   0  0  0  0  0  0  0  0  0  0  0  0
    3.4749  -15.5321    1.8825 C   0  0  0  0  0  0  0  0  0  0  0  0
    1.5233  -13.1113    1.4836 C   0  0  0  0  0  0  0  0  0  0  0  0
    0.6624   -6.4355   -1.0260 C   0  0  0  0  0  0  0  0  0  0  0  0
   -0.2317   -7.1811   -2.3082 Cl  0  0  0  0  0  0  0  0  0  0  0  0
    0.8839   -5.0500   -1.0922 C   0  0  0  0  0  0  0  0  0  0  0  0
    2.6597   -1.1967    1.1162 C   0  0  0  0  0  0  0  0  0  0  0  0
    4.4121   -0.1472   -1.5780 H   0  0  0  0  0  0  0  0  0  0  0  0
    2.7497   -0.7966   -1.6594 H   0  0  0  0  0  0  0  0  0  0  0  0
    4.1211   -1.8679   -1.1929 H   0  0  0  0  0  0  0  0  0  0  0  0
    4.7818    1.1870    0.3945 H   0  0  0  0  0  0  0  0  0  0  0  0
    3.9081    1.2442    2.9742 H   0  0  0  0  0  0  0  0  0  0  0  0
    0.6883   -2.3544    4.0651 H   0  0  0  0  0  0  0  0  0  0  0  0
    2.7115   -4.7075    1.7565 H   0  0  0  0  0  0  0  0  0  0  0  0
    2.3163   -7.0375    1.8918 H   0  0  0  0  0  0  0  0  0  0  0  0
    0.3365   -8.9796   -0.6436 H   0  0  0  0  0  0  0  0  0  0  0  0
    0.8132  -11.0706   -0.0840 H   0  0  0  0  0  0  0  0  0  0  0  0
    1.8228  -10.7850    3.7505 H   0  0  0  0  0  0  0  0  0  0  0  0
    2.0372  -15.1512    5.0159 H   0  0  0  0  0  0  0  0  0  0  0  0
    3.6994  -14.7845    4.5309 H   0  0  0  0  0  0  0  0  0  0  0  0
    3.0933  -16.4410    4.4264 H   0  0  0  0  0  0  0  0  0  0  0  0
    0.2858  -15.7432    3.2625 H   0  0  0  0  0  0  0  0  0  0  0  0
    1.3293  -17.0584    2.6934 H   0  0  0  0  0  0  0  0  0  0  0  0
    0.7168  -15.8560    1.5534 H   0  0  0  0  0  0  0  0  0  0  0  0
    4.3731  -14.9265    2.0522 H   0  0  0  0  0  0  0  0  0  0  0  0
    3.1895  -15.4117    0.8318 H   0  0  0  0  0  0  0  0  0  0  0  0
    3.7506  -16.5833    2.0282 H   0  0  0  0  0  0  0  0  0  0  0  0
    1.3598  -13.6825    0.5816 H   0  0  0  0  0  0  0  0  0  0  0  0
    0.4987   -4.4713   -1.9271 H   0  0  0  0  0  0  0  0  0  0  0  0
  1  2  1  0  0  0  0
  1 32  1  0  0  0  0
  1 33  1  0  0  0  0
  1 34  1  0  0  0  0
  2  3  1  0  0  0  0
  2 31  1  0  0  0  0
  3  4  2  0  0  0  0
  3 35  1  0  0  0  0
  4  5  1  0  0  0  0
  4 36  1  0  0  0  0
  5  6  1  0  0  0  0
  5 31  2  0  0  0  0
  6  7  2  0  0  0  0
  7  8  1  0  0  0  0
  7 37  1  0  0  0  0
  8  9  2  0  0  0  0
  9 10  1  0  0  0  0
  9 31  1  0  0  0  0
 10 11  1  0  0  0  0
 11 12  1  0  0  0  0
 11 30  2  0  0  0  0
 12 13  2  0  0  0  0
 12 38  1  0  0  0  0
 13 14  1  0  0  0  0
 13 39  1  0  0  0  0
 14 15  1  0  0  0  0
 14 28  2  0  0  0  0
 15 16  1  0  0  0  0
 15 40  1  0  0  0  0
 16 17  2  0  0  0  0
 16 18  1  0  0  0  0
 18 19  1  0  0  0  0
 18 41  1  0  0  0  0
 19 20  1  0  0  0  0
 19 27  2  0  0  0  0
 20 21  2  0  0  0  0
 20 42  1  0  0  0  0
 21 22  1  0  0  0  0
 22 23  1  0  0  0  0
 22 27  1  0  0  0  0
 23 24  1  0  0  0  0
 23 25  1  0  0  0  0
 23 26  1  0  0  0  0
 24 43  1  0  0  0  0
 24 44  1  0  0  0  0
 24 45  1  0  0  0  0
 25 46  1  0  0  0  0
 25 47  1  0  0  0  0
 25 48  1  0  0  0  0
 26 49  1  0  0  0  0
 26 50  1  0  0  0  0
 26 51  1  0  0  0  0
 27 52  1  0  0  0  0
 28 29  1  0  0  0  0
 28 30  1  0  0  0  0
 30 53  1  0  0  0  0
M  END
$$$$
