CHEMBL3895378
 OpenBabel04072215373D

 57 60  0  0  1  0  0  0  0  0999 V2000
    7.2636   -0.8372    5.5085 C   0  0  0  0  0  0  0  0  0  0  0  0
    6.1317   -0.0497    5.1321 O   0  0  0  0  0  0  0  0  0  0  0  0
    6.3638    1.0301    4.3154 C   0  0  0  0  0  0  0  0  0  0  0  0
    7.6189    1.5913    4.0896 C   0  0  0  0  0  0  0  0  0  0  0  0
    7.7420    2.6647    3.2061 C   0  0  0  0  0  0  0  0  0  0  0  0
    8.9312    3.2698    2.8916 O   0  0  0  0  0  0  0  0  0  0  0  0
    9.8787    3.3075    3.9552 C   0  0  0  0  0  0  0  0  0  0  0  0
    6.6259    3.1370    2.5015 C   0  0  0  0  0  0  0  0  0  0  0  0
    5.3601    2.5723    2.6748 C   0  0  0  0  0  0  0  0  0  0  0  0
    4.2681    2.8445    1.8154 N   0  0  0  0  0  0  0  0  0  0  0  0
    4.5587    2.9893    0.3326 C   0  0  0  0  0  0  0  0  0  0  0  0
    5.2997    1.8736   -0.4868 C   0  0  2  0  0  0  0  0  0  0  0  0
    4.5261    0.5666   -0.7008 C   0  0  0  0  0  0  0  0  0  0  0  0
    6.6892    1.5598   -0.1528 N   0  0  0  0  0  0  0  0  0  0  0  0
    3.1374    3.7240    2.0893 C   0  0  0  0  0  0  0  0  0  0  0  0
    1.9211    3.2560    1.5923 C   0  0  0  0  0  0  0  0  0  0  0  0
    0.9090    4.1371    1.2694 C   0  0  0  0  0  0  0  0  0  0  0  0
    1.0202    5.4834    1.5292 C   0  0  0  0  0  0  0  0  0  0  0  0
    0.0441    6.2201    0.9823 N   0  0  0  0  0  0  0  0  0  0  0  0
    0.0319    7.5214    1.2988 C   0  0  0  0  0  0  0  0  0  0  0  0
    0.9132    8.0696    2.2074 C   0  0  0  0  0  0  0  0  0  0  0  0
    0.5783    9.4015    2.7017 C   0  0  0  0  0  0  0  0  0  0  0  0
   -0.1284    9.7796    3.8741 C   0  0  0  0  0  0  0  0  0  0  0  0
   -0.4556   11.0783    3.8926 N   0  0  0  0  0  0  0  0  0  0  0  0
    0.0307   11.5391    2.7281 N   0  0  0  0  0  0  0  0  0  0  0  0
    0.1238   12.9605    2.4855 C   0  0  0  0  0  0  0  0  0  0  0  0
    0.5055   10.5426    1.9173 C   0  0  0  0  0  0  0  0  0  0  0  0
    1.9768    7.3377    2.6952 N   0  0  0  0  0  0  0  0  0  0  0  0
    2.0820    6.0015    2.3035 C   0  0  0  0  0  0  0  0  0  0  0  0
    3.1719    5.0832    2.5308 C   0  0  0  0  0  0  0  0  0  0  0  0
    5.2404    1.5557    3.6471 C   0  0  0  0  0  0  0  0  0  0  0  0
    6.8987   -1.8013    5.8776 H   0  0  0  0  0  0  0  0  0  0  0  0
    7.8192   -0.3574    6.3218 H   0  0  0  0  0  0  0  0  0  0  0  0
    7.9250   -1.0493    4.6604 H   0  0  0  0  0  0  0  0  0  0  0  0
    8.4991    1.1914    4.5775 H   0  0  0  0  0  0  0  0  0  0  0  0
   10.6297    4.0617    3.7048 H   0  0  0  0  0  0  0  0  0  0  0  0
   10.3905    2.3448    4.0576 H   0  0  0  0  0  0  0  0  0  0  0  0
    9.4092    3.6027    4.9004 H   0  0  0  0  0  0  0  0  0  0  0  0
    6.7740    3.9288    1.7739 H   0  0  0  0  0  0  0  0  0  0  0  0
    5.0740    3.9447    0.1729 H   0  0  0  0  0  0  0  0  0  0  0  0
    3.6039    3.0830   -0.2041 H   0  0  0  0  0  0  0  0  0  0  0  0
    5.3705    2.3125   -1.4954 H   0  0  0  0  0  0  0  0  0  0  0  0
    4.1057    0.1660    0.2260 H   0  0  0  0  0  0  0  0  0  0  0  0
    5.1763   -0.2064   -1.1393 H   0  0  0  0  0  0  0  0  0  0  0  0
    3.7189    0.7158   -1.4307 H   0  0  0  0  0  0  0  0  0  0  0  0
    6.7202    1.0441    0.7260 H   0  0  0  0  0  0  0  0  0  0  0  0
    7.2175    2.4168    0.0033 H   0  0  0  0  0  0  0  0  0  0  0  0
    1.8226    2.2079    1.3087 H   0  0  0  0  0  0  0  0  0  0  0  0
    0.0339    3.7693    0.7434 H   0  0  0  0  0  0  0  0  0  0  0  0
   -0.7520    8.1034    0.8265 H   0  0  0  0  0  0  0  0  0  0  0  0
   -0.4538    9.1595    4.7000 H   0  0  0  0  0  0  0  0  0  0  0  0
   -0.3192   13.5133    3.3188 H   0  0  0  0  0  0  0  0  0  0  0  0
   -0.3893   13.2078    1.5533 H   0  0  0  0  0  0  0  0  0  0  0  0
    1.1871   13.2051    2.4111 H   0  0  0  0  0  0  0  0  0  0  0  0
    0.7718   10.7417    0.8889 H   0  0  0  0  0  0  0  0  0  0  0  0
    4.0767    5.4638    3.0001 H   0  0  0  0  0  0  0  0  0  0  0  0
    4.2697    1.0993    3.8343 H   0  0  0  0  0  0  0  0  0  0  0  0
  1  2  1  0  0  0  0
  1 32  1  0  0  0  0
  1 33  1  0  0  0  0
  1 34  1  0  0  0  0
  2  3  1  0  0  0  0
  3  4  1  0  0  0  0
  3 31  2  0  0  0  0
  4  5  2  0  0  0  0
  4 35  1  0  0  0  0
  5  6  1  0  0  0  0
  5  8  1  0  0  0  0
  6  7  1  0  0  0  0
  7 36  1  0  0  0  0
  7 37  1  0  0  0  0
  7 38  1  0  0  0  0
  8  9  2  0  0  0  0
  8 39  1  0  0  0  0
  9 10  1  0  0  0  0
  9 31  1  0  0  0  0
 10 11  1  0  0  0  0
 10 15  1  0  0  0  0
 11 40  1  0  0  0  0
 11 41  1  0  0  0  0
 12 14  1  0  0  0  0
 12 13  1  0  0  0  0
 12 11  1  0  0  0  0
 12 42  1  6  0  0  0
 13 43  1  0  0  0  0
 13 44  1  0  0  0  0
 13 45  1  0  0  0  0
 14 46  1  0  0  0  0
 14 47  1  0  0  0  0
 15 16  1  0  0  0  0
 15 30  2  0  0  0  0
 16 17  2  0  0  0  0
 16 48  1  0  0  0  0
 17 18  1  0  0  0  0
 17 49  1  0  0  0  0
 18 19  1  0  0  0  0
 18 29  2  0  0  0  0
 19 20  2  0  0  0  0
 20 21  1  0  0  0  0
 20 50  1  0  0  0  0
 21 22  1  0  0  0  0
 21 28  2  0  0  0  0
 22 23  1  0  0  0  0
 22 27  2  0  0  0  0
 23 24  2  0  0  0  0
 23 51  1  0  0  0  0
 24 25  1  0  0  0  0
 25 26  1  0  0  0  0
 25 27  1  0  0  0  0
 26 52  1  0  0  0  0
 26 53  1  0  0  0  0
 26 54  1  0  0  0  0
 27 55  1  0  0  0  0
 28 29  1  0  0  0  0
 29 30  1  0  0  0  0
 30 56  1  0  0  0  0
 31 57  1  0  0  0  0
M  END
$$$$
