CHEMBL1762527
 OpenBabel04072215363D

 70 74  0  0  0  0  0  0  0  0999 V2000
   -1.7150    2.8820    2.0592 C   0  0  0  0  0  0  0  0  0  0  0  0
   -0.3780    2.7906    2.5435 O   0  0  0  0  0  0  0  0  0  0  0  0
    0.4361    3.8629    2.2900 C   0  0  0  0  0  0  0  0  0  0  0  0
    0.0483    5.0285    1.6436 C   0  0  0  0  0  0  0  0  0  0  0  0
    0.9771    6.0399    1.4293 C   0  0  0  0  0  0  0  0  0  0  0  0
    2.3171    5.9057    1.8402 C   0  0  0  0  0  0  0  0  0  0  0  0
    3.2344    7.0483    1.4788 C   0  0  0  0  0  0  0  0  0  0  0  0
    2.7306    4.7409    2.5441 C   0  0  0  0  0  0  0  0  0  0  0  0
    4.0511    4.5862    3.0305 N   0  0  0  0  0  0  0  0  0  0  0  0
    4.6535    3.2554    3.1346 C   0  0  0  0  0  0  0  0  0  0  0  0
    4.8530    5.5683    3.6705 C   0  0  0  0  0  0  0  0  0  0  0  0
    4.2366    6.5395    4.4388 C   0  0  0  0  0  0  0  0  0  0  0  0
    5.0381    7.5283    4.9326 C   0  0  0  0  0  0  0  0  0  0  0  0
    6.3570    7.5555    4.7343 N   0  0  0  0  0  0  0  0  0  0  0  0
    6.9110    6.5564    4.0325 C   0  0  0  0  0  0  0  0  0  0  0  0
    8.2987    6.5079    3.8454 N   0  0  0  0  0  0  0  0  0  0  0  0
    9.3202    7.2354    4.4811 C   0  0  0  0  0  0  0  0  0  0  0  0
   10.6205    6.7173    4.5269 C   0  0  0  0  0  0  0  0  0  0  0  0
   11.6473    7.3403    5.2522 C   0  0  0  0  0  0  0  0  0  0  0  0
   12.9108    6.7965    5.3137 N   0  0  0  0  0  0  0  0  0  0  0  0
   13.5680    6.2020    4.1459 C   0  0  0  0  0  0  0  0  0  0  0  0
   14.0579    4.7954    4.5101 C   0  0  0  0  0  0  0  0  0  0  0  0
   14.9283    4.8267    5.6564 O   0  0  0  0  0  0  0  0  0  0  0  0
   14.2386    5.3738    6.7962 C   0  0  0  0  0  0  0  0  0  0  0  0
   13.7266    6.8035    6.5336 C   0  0  0  0  0  0  0  0  0  0  0  0
   11.3252    8.5229    5.9385 C   0  0  0  0  0  0  0  0  0  0  0  0
   10.0605    9.1258    5.8755 C   0  0  0  0  0  0  0  0  0  0  0  0
    9.7861   10.2968    6.5601 N   0  0  0  0  0  0  0  0  0  0  0  0
    8.4251   10.6797    6.9756 C   0  0  0  0  0  0  0  0  0  0  0  0
    7.9500   11.9190    6.2052 C   0  0  0  0  0  0  0  0  0  0  0  0
    8.8799   13.0068    6.3481 O   0  0  0  0  0  0  0  0  0  0  0  0
   10.1624   12.6264    5.8225 C   0  0  0  0  0  0  0  0  0  0  0  0
   10.7517   11.4063    6.5523 C   0  0  0  0  0  0  0  0  0  0  0  0
    9.0923    8.4630    5.1181 C   0  0  0  0  0  0  0  0  0  0  0  0
    6.1956    5.5539    3.5009 N   0  0  0  0  0  0  0  0  0  0  0  0
    1.7602    3.7357    2.7470 C   0  0  0  0  0  0  0  0  0  0  0  0
   -2.2328    1.9526    2.3137 H   0  0  0  0  0  0  0  0  0  0  0  0
   -1.7366    2.9860    0.9686 H   0  0  0  0  0  0  0  0  0  0  0  0
   -2.2516    3.7049    2.5437 H   0  0  0  0  0  0  0  0  0  0  0  0
   -0.9632    5.1864    1.2889 H   0  0  0  0  0  0  0  0  0  0  0  0
    0.6525    6.9417    0.9137 H   0  0  0  0  0  0  0  0  0  0  0  0
    2.8469    7.6001    0.6152 H   0  0  0  0  0  0  0  0  0  0  0  0
    4.2285    6.6925    1.1966 H   0  0  0  0  0  0  0  0  0  0  0  0
    3.3016    7.7625    2.3033 H   0  0  0  0  0  0  0  0  0  0  0  0
    4.0501    2.4622    2.6823 H   0  0  0  0  0  0  0  0  0  0  0  0
    4.8129    2.9858    4.1871 H   0  0  0  0  0  0  0  0  0  0  0  0
    5.6203    3.2197    2.6187 H   0  0  0  0  0  0  0  0  0  0  0  0
    3.1727    6.5465    4.6177 H   0  0  0  0  0  0  0  0  0  0  0  0
    4.6332    8.3564    5.5036 H   0  0  0  0  0  0  0  0  0  0  0  0
    8.5513    5.6363    3.4100 H   0  0  0  0  0  0  0  0  0  0  0  0
   10.8212    5.7678    4.0379 H   0  0  0  0  0  0  0  0  0  0  0  0
   14.4297    6.8307    3.8878 H   0  0  0  0  0  0  0  0  0  0  0  0
   12.9245    6.1650    3.2610 H   0  0  0  0  0  0  0  0  0  0  0  0
   14.6224    4.3699    3.6750 H   0  0  0  0  0  0  0  0  0  0  0  0
   13.2131    4.1288    4.7214 H   0  0  0  0  0  0  0  0  0  0  0  0
   14.9393    5.3771    7.6369 H   0  0  0  0  0  0  0  0  0  0  0  0
   13.4077    4.7066    7.0565 H   0  0  0  0  0  0  0  0  0  0  0  0
   14.5765    7.4801    6.3858 H   0  0  0  0  0  0  0  0  0  0  0  0
   13.1694    7.1411    7.4145 H   0  0  0  0  0  0  0  0  0  0  0  0
   12.0923    8.9962    6.5442 H   0  0  0  0  0  0  0  0  0  0  0  0
    8.4704   10.9272    8.0429 H   0  0  0  0  0  0  0  0  0  0  0  0
    7.6958    9.8681    6.8830 H   0  0  0  0  0  0  0  0  0  0  0  0
    6.9874   12.2566    6.6034 H   0  0  0  0  0  0  0  0  0  0  0  0
    7.8132   11.7030    5.1391 H   0  0  0  0  0  0  0  0  0  0  0  0
   10.8339   13.4826    5.9412 H   0  0  0  0  0  0  0  0  0  0  0  0
   10.0591   12.4308    4.7485 H   0  0  0  0  0  0  0  0  0  0  0  0
   10.9654   11.6708    7.5939 H   0  0  0  0  0  0  0  0  0  0  0  0
   11.7013   11.1453    6.0737 H   0  0  0  0  0  0  0  0  0  0  0  0
    8.1250    8.9338    5.0027 H   0  0  0  0  0  0  0  0  0  0  0  0
    2.0070    2.8275    3.2870 H   0  0  0  0  0  0  0  0  0  0  0  0
  1  2  1  0  0  0  0
  1 37  1  0  0  0  0
  1 38  1  0  0  0  0
  1 39  1  0  0  0  0
  2  3  1  0  0  0  0
  3  4  1  0  0  0  0
  3 36  2  0  0  0  0
  4  5  2  0  0  0  0
  4 40  1  0  0  0  0
  5  6  1  0  0  0  0
  5 41  1  0  0  0  0
  6  7  1  0  0  0  0
  6  8  2  0  0  0  0
  7 42  1  0  0  0  0
  7 43  1  0  0  0  0
  7 44  1  0  0  0  0
  8  9  1  0  0  0  0
  8 36  1  0  0  0  0
  9 10  1  0  0  0  0
  9 11  1  0  0  0  0
 10 45  1  0  0  0  0
 10 46  1  0  0  0  0
 10 47  1  0  0  0  0
 11 12  1  0  0  0  0
 11 35  2  0  0  0  0
 12 13  2  0  0  0  0
 12 48  1  0  0  0  0
 13 14  1  0  0  0  0
 13 49  1  0  0  0  0
 14 15  2  0  0  0  0
 15 16  1  0  0  0  0
 15 35  1  0  0  0  0
 16 17  1  0  0  0  0
 16 50  1  0  0  0  0
 17 18  1  0  0  0  0
 17 34  2  0  0  0  0
 18 19  2  0  0  0  0
 18 51  1  0  0  0  0
 19 20  1  0  0  0  0
 19 26  1  0  0  0  0
 20 21  1  0  0  0  0
 20 25  1  0  0  0  0
 21 22  1  0  0  0  0
 21 52  1  0  0  0  0
 21 53  1  0  0  0  0
 22 23  1  0  0  0  0
 22 54  1  0  0  0  0
 22 55  1  0  0  0  0
 23 24  1  0  0  0  0
 24 25  1  0  0  0  0
 24 56  1  0  0  0  0
 24 57  1  0  0  0  0
 25 58  1  0  0  0  0
 25 59  1  0  0  0  0
 26 27  2  0  0  0  0
 26 60  1  0  0  0  0
 27 28  1  0  0  0  0
 27 34  1  0  0  0  0
 28 29  1  0  0  0  0
 28 33  1  0  0  0  0
 29 30  1  0  0  0  0
 29 61  1  0  0  0  0
 29 62  1  0  0  0  0
 30 31  1  0  0  0  0
 30 63  1  0  0  0  0
 30 64  1  0  0  0  0
 31 32  1  0  0  0  0
 32 33  1  0  0  0  0
 32 65  1  0  0  0  0
 32 66  1  0  0  0  0
 33 67  1  0  0  0  0
 33 68  1  0  0  0  0
 34 69  1  0  0  0  0
 36 70  1  0  0  0  0
M  END
$$$$
