CHEMBL1985311
 OpenBabel04072215363D

 47 50  0  0  0  0  0  0  0  0999 V2000
   -1.0347    2.1126   -3.2000 N   0  0  0  0  0  0  0  0  0  0  0  0
   -1.3229    1.0051   -2.5027 C   0  0  0  0  0  0  0  0  0  0  0  0
   -1.7124   -0.0904   -3.1477 N   0  0  0  0  0  0  0  0  0  0  0  0
   -1.9134   -0.9784   -2.1748 N   0  0  0  0  0  0  0  0  0  0  0  0
   -1.6636   -0.5078   -0.9156 C   0  0  0  0  0  0  0  0  0  0  0  0
   -1.7656   -1.1573    0.3177 C   0  0  0  0  0  0  0  0  0  0  0  0
   -1.4234   -0.4294    1.4494 C   0  0  0  0  0  0  0  0  0  0  0  0
   -1.0018    0.8946    1.3439 C   0  0  0  0  0  0  0  0  0  0  0  0
   -0.9079    1.5663    0.0990 C   0  0  0  0  0  0  0  0  0  0  0  0
   -0.4517    2.9702    0.0474 C   0  0  0  0  0  0  0  0  0  0  0  0
    0.4540    3.3943   -0.9228 C   0  0  0  0  0  0  0  0  0  0  0  0
    0.8091    4.7366   -1.0568 C   0  0  0  0  0  0  0  0  0  0  0  0
    0.3607    5.7041   -0.1587 C   0  0  0  0  0  0  0  0  0  0  0  0
    0.7364    7.0650   -0.2520 N   0  0  0  0  0  0  0  0  0  0  0  0
    1.4015    7.6253   -1.3299 C   0  0  0  0  0  0  0  0  0  0  0  0
    1.6480    7.0451   -2.3817 O   0  0  0  0  0  0  0  0  0  0  0  0
    1.8060    8.9329   -1.0922 N   0  0  0  0  0  0  0  0  0  0  0  0
    2.5354    9.5984   -2.1201 C   0  0  0  0  0  0  0  0  0  0  0  0
    2.0830    9.5936   -3.4457 C   0  0  0  0  0  0  0  0  0  0  0  0
    2.8887   10.0903   -4.4892 C   0  0  0  0  0  0  0  0  0  0  0  0
    2.4036   10.0873   -5.9150 C   0  0  0  0  0  0  0  0  0  0  0  0
    1.5661    8.9757   -6.2078 O   0  0  0  0  0  0  0  0  0  0  0  0
    4.1318   10.6483   -4.1618 C   0  0  0  0  0  0  0  0  0  0  0  0
    4.5676   10.6951   -2.8353 C   0  0  0  0  0  0  0  0  0  0  0  0
    3.7588   10.1841   -1.8205 C   0  0  0  0  0  0  0  0  0  0  0  0
    4.2123   10.1855   -0.5582 F   0  0  0  0  0  0  0  0  0  0  0  0
   -0.4645    5.2870    0.8870 C   0  0  0  0  0  0  0  0  0  0  0  0
   -0.8767    3.9417    0.9756 C   0  0  0  0  0  0  0  0  0  0  0  0
   -1.2550    0.8207   -1.0746 C   0  0  0  0  0  0  0  0  0  0  0  0
   -1.2487    2.0923   -4.1905 H   0  0  0  0  0  0  0  0  0  0  0  0
   -1.1068    3.0326   -2.7852 H   0  0  0  0  0  0  0  0  0  0  0  0
   -2.2184   -1.9080   -2.4353 H   0  0  0  0  0  0  0  0  0  0  0  0
   -2.0895   -2.1909    0.3914 H   0  0  0  0  0  0  0  0  0  0  0  0
   -1.4772   -0.8989    2.4296 H   0  0  0  0  0  0  0  0  0  0  0  0
   -0.7187    1.4130    2.2574 H   0  0  0  0  0  0  0  0  0  0  0  0
    0.8865    2.6858   -1.6270 H   0  0  0  0  0  0  0  0  0  0  0  0
    1.4548    4.9718   -1.8947 H   0  0  0  0  0  0  0  0  0  0  0  0
    0.3696    7.7040    0.4396 H   0  0  0  0  0  0  0  0  0  0  0  0
    2.1503    9.0941   -0.1557 H   0  0  0  0  0  0  0  0  0  0  0  0
    1.1137    9.1645   -3.6832 H   0  0  0  0  0  0  0  0  0  0  0  0
    3.2519   10.0379   -6.6055 H   0  0  0  0  0  0  0  0  0  0  0  0
    1.8424   11.0045   -6.1183 H   0  0  0  0  0  0  0  0  0  0  0  0
    1.9842    8.1861   -5.8189 H   0  0  0  0  0  0  0  0  0  0  0  0
    4.7786   11.0361   -4.9474 H   0  0  0  0  0  0  0  0  0  0  0  0
    5.5451   11.0987   -2.5898 H   0  0  0  0  0  0  0  0  0  0  0  0
   -0.8165    5.9890    1.6381 H   0  0  0  0  0  0  0  0  0  0  0  0
   -1.5468    3.6620    1.7873 H   0  0  0  0  0  0  0  0  0  0  0  0
  1  2  1  0  0  0  0
  1 30  1  0  0  0  0
  1 31  1  0  0  0  0
  2  3  2  0  0  0  0
  2 29  1  0  0  0  0
  3  4  1  0  0  0  0
  4  5  1  0  0  0  0
  4 32  1  0  0  0  0
  5  6  1  0  0  0  0
  5 29  2  0  0  0  0
  6  7  2  0  0  0  0
  6 33  1  0  0  0  0
  7  8  1  0  0  0  0
  7 34  1  0  0  0  0
  8  9  2  0  0  0  0
  8 35  1  0  0  0  0
  9 10  1  0  0  0  0
  9 29  1  0  0  0  0
 10 11  1  0  0  0  0
 10 28  2  0  0  0  0
 11 12  2  0  0  0  0
 11 36  1  0  0  0  0
 12 13  1  0  0  0  0
 12 37  1  0  0  0  0
 13 14  1  0  0  0  0
 13 27  2  0  0  0  0
 14 15  1  0  0  0  0
 14 38  1  0  0  0  0
 15 16  2  0  0  0  0
 15 17  1  0  0  0  0
 17 18  1  0  0  0  0
 17 39  1  0  0  0  0
 18 19  1  0  0  0  0
 18 25  2  0  0  0  0
 19 20  2  0  0  0  0
 19 40  1  0  0  0  0
 20 21  1  0  0  0  0
 20 23  1  0  0  0  0
 21 22  1  0  0  0  0
 21 41  1  0  0  0  0
 21 42  1  0  0  0  0
 22 43  1  0  0  0  0
 23 24  2  0  0  0  0
 23 44  1  0  0  0  0
 24 25  1  0  0  0  0
 24 45  1  0  0  0  0
 25 26  1  0  0  0  0
 27 28  1  0  0  0  0
 27 46  1  0  0  0  0
 28 47  1  0  0  0  0
M  END
$$$$
