CHEMBL3775086
 OpenBabel04072215373D

 40 42  0  0  0  0  0  0  0  0999 V2000
    3.4196   -0.4604    1.1334 C   0  0  0  0  0  0  0  0  0  0  0  0
    2.5323    0.0358    0.1286 O   0  0  0  0  0  0  0  0  0  0  0  0
    3.1138    0.3281   -1.0794 C   0  0  0  0  0  0  0  0  0  0  0  0
    4.2277   -0.3940   -1.5468 C   0  0  0  0  0  0  0  0  0  0  0  0
    4.9156   -0.0427   -2.6981 C   0  0  0  0  0  0  0  0  0  0  0  0
    6.0159   -0.7265   -3.0291 N   0  0  0  0  0  0  0  0  0  0  0  0
    6.6718   -0.3118   -4.1167 C   0  0  0  0  0  0  0  0  0  0  0  0
    6.3308    0.7179   -4.8913 N   0  0  0  0  0  0  0  0  0  0  0  0
    5.2212    1.3996   -4.5513 C   0  0  0  0  0  0  0  0  0  0  0  0
    4.8488    2.5418   -5.3144 N   0  0  0  0  0  0  0  0  0  0  0  0
    5.4135    2.8689   -6.5649 C   0  0  0  0  0  0  0  0  0  0  0  0
    5.5436    1.8904   -7.5587 C   0  0  0  0  0  0  0  0  0  0  0  0
    6.1794    2.1567   -8.7709 C   0  0  0  0  0  0  0  0  0  0  0  0
    6.3727    1.0684   -9.7801 C   0  0  0  0  0  0  0  0  0  0  0  0
    6.6619    3.4494   -9.0090 C   0  0  0  0  0  0  0  0  0  0  0  0
    6.5006    4.4371   -8.0372 C   0  0  0  0  0  0  0  0  0  0  0  0
    6.9806    5.7027   -8.2270 O   0  0  0  0  0  0  0  0  0  0  0  0
    5.8729    4.1620   -6.8272 C   0  0  0  0  0  0  0  0  0  0  0  0
    4.4425    1.0365   -3.4445 C   0  0  0  0  0  0  0  0  0  0  0  0
    3.2511    1.6850   -3.0551 C   0  0  0  0  0  0  0  0  0  0  0  0
    2.5886    1.3521   -1.8702 C   0  0  0  0  0  0  0  0  0  0  0  0
    1.4982    2.1505   -1.6766 O   0  0  0  0  0  0  0  0  0  0  0  0
    0.7788    2.0873   -0.4593 C   0  0  0  0  0  0  0  0  0  0  0  0
    3.0922   -0.0665    2.0996 H   0  0  0  0  0  0  0  0  0  0  0  0
    4.4609   -0.1422    0.9986 H   0  0  0  0  0  0  0  0  0  0  0  0
    3.3590   -1.5525    1.1646 H   0  0  0  0  0  0  0  0  0  0  0  0
    4.6037   -1.2504   -0.9932 H   0  0  0  0  0  0  0  0  0  0  0  0
    7.5708   -0.8544   -4.3890 H   0  0  0  0  0  0  0  0  0  0  0  0
    4.7791    3.3483   -4.7023 H   0  0  0  0  0  0  0  0  0  0  0  0
    5.1624    0.8893   -7.3615 H   0  0  0  0  0  0  0  0  0  0  0  0
    5.9218    0.1289   -9.4413 H   0  0  0  0  0  0  0  0  0  0  0  0
    7.4410    0.8896   -9.9323 H   0  0  0  0  0  0  0  0  0  0  0  0
    5.9065    1.3412  -10.7304 H   0  0  0  0  0  0  0  0  0  0  0  0
    7.1689    3.6707   -9.9427 H   0  0  0  0  0  0  0  0  0  0  0  0
    7.4653    5.7211   -9.0683 H   0  0  0  0  0  0  0  0  0  0  0  0
    5.7886    4.9484   -6.0843 H   0  0  0  0  0  0  0  0  0  0  0  0
    2.8317    2.4741   -3.6773 H   0  0  0  0  0  0  0  0  0  0  0  0
    0.1249    2.9660   -0.4319 H   0  0  0  0  0  0  0  0  0  0  0  0
    1.4331    2.1572    0.4134 H   0  0  0  0  0  0  0  0  0  0  0  0
    0.1419    1.1987   -0.4303 H   0  0  0  0  0  0  0  0  0  0  0  0
  1  2  1  0  0  0  0
  1 24  1  0  0  0  0
  1 25  1  0  0  0  0
  1 26  1  0  0  0  0
  2  3  1  0  0  0  0
  3  4  1  0  0  0  0
  3 21  2  0  0  0  0
  4  5  2  0  0  0  0
  4 27  1  0  0  0  0
  5  6  1  0  0  0  0
  5 19  1  0  0  0  0
  6  7  2  0  0  0  0
  7  8  1  0  0  0  0
  7 28  1  0  0  0  0
  8  9  2  0  0  0  0
  9 10  1  0  0  0  0
  9 19  1  0  0  0  0
 10 11  1  0  0  0  0
 10 29  1  0  0  0  0
 11 12  1  0  0  0  0
 11 18  2  0  0  0  0
 12 13  2  0  0  0  0
 12 30  1  0  0  0  0
 13 14  1  0  0  0  0
 13 15  1  0  0  0  0
 14 31  1  0  0  0  0
 14 32  1  0  0  0  0
 14 33  1  0  0  0  0
 15 16  2  0  0  0  0
 15 34  1  0  0  0  0
 16 17  1  0  0  0  0
 16 18  1  0  0  0  0
 17 35  1  0  0  0  0
 18 36  1  0  0  0  0
 19 20  2  0  0  0  0
 20 21  1  0  0  0  0
 20 37  1  0  0  0  0
 21 22  1  0  0  0  0
 22 23  1  0  0  0  0
 23 38  1  0  0  0  0
 23 39  1  0  0  0  0
 23 40  1  0  0  0  0
M  END
$$$$
