CHEMBL69544
 OpenBabel04072215383D

 57 61  0  0  0  0  0  0  0  0999 V2000
    1.0143    1.2446   -2.5765 C   0  0  0  0  0  0  0  0  0  0  0  0
    2.4285    1.1857   -2.4717 O   0  0  0  0  0  0  0  0  0  0  0  0
    2.8362    0.2362   -1.4986 C   0  0  0  0  0  0  0  0  0  0  0  0
    4.3262    0.3680   -1.3572 C   0  0  0  0  0  0  0  0  0  0  0  0
    5.1187    1.4851   -1.0282 C   0  0  0  0  0  0  0  0  0  0  0  0
    4.5593    2.8071   -0.7158 C   0  0  0  0  0  0  0  0  0  0  0  0
    3.3922    2.9285    0.0457 C   0  0  0  0  0  0  0  0  0  0  0  0
    2.8307    4.1715    0.3236 C   0  0  0  0  0  0  0  0  0  0  0  0
    3.5285    5.3344    0.0149 C   0  0  0  0  0  0  0  0  0  0  0  0
    3.1358    6.5962    0.4023 O   0  0  0  0  0  0  0  0  0  0  0  0
    2.3624    6.7469    1.5350 C   0  0  0  0  0  0  0  0  0  0  0  0
    2.4902    5.9635    2.6884 C   0  0  0  0  0  0  0  0  0  0  0  0
    1.6048    6.1302    3.7530 C   0  0  0  0  0  0  0  0  0  0  0  0
    0.6406    7.1347    3.7022 C   0  0  0  0  0  0  0  0  0  0  0  0
    0.5645    7.9730    2.5893 C   0  0  0  0  0  0  0  0  0  0  0  0
    1.4229    7.7777    1.5055 C   0  0  0  0  0  0  0  0  0  0  0  0
    4.6878    5.2417   -0.7524 C   0  0  0  0  0  0  0  0  0  0  0  0
    5.1689    3.9875   -1.1564 C   0  0  0  0  0  0  0  0  0  0  0  0
    6.5017    1.0721   -1.0966 C   0  0  0  0  0  0  0  0  0  0  0  0
    7.7761    1.6542   -0.9225 C   0  0  0  0  0  0  0  0  0  0  0  0
    8.0220    2.9719   -0.5567 N   0  0  0  0  0  0  0  0  0  0  0  0
    8.8797    0.9004   -1.1010 N   0  0  0  0  0  0  0  0  0  0  0  0
    8.7240   -0.3900   -1.4299 C   0  0  0  0  0  0  0  0  0  0  0  0
    7.5793   -1.0604   -1.5967 N   0  0  0  0  0  0  0  0  0  0  0  0
    6.4965   -0.2777   -1.4219 C   0  0  0  0  0  0  0  0  0  0  0  0
    5.1929   -0.7051   -1.5418 N   0  0  0  0  0  0  0  0  0  0  0  0
    4.8104   -2.0670   -1.8513 C   0  0  0  0  0  0  0  0  0  0  0  0
    5.2743   -3.1619   -0.8829 C   0  0  0  0  0  0  0  0  0  0  0  0
    5.0100   -4.4591   -1.6512 C   0  0  0  0  0  0  0  0  0  0  0  0
    4.8858   -4.0770   -3.1305 C   0  0  0  0  0  0  0  0  0  0  0  0
    5.2398   -2.5965   -3.2144 C   0  0  0  0  0  0  0  0  0  0  0  0
    0.7574    1.9390   -3.3794 H   0  0  0  0  0  0  0  0  0  0  0  0
    0.5789    1.6105   -1.6416 H   0  0  0  0  0  0  0  0  0  0  0  0
    0.6040    0.2594   -2.8205 H   0  0  0  0  0  0  0  0  0  0  0  0
    2.4983   -0.7396   -1.8401 H   0  0  0  0  0  0  0  0  0  0  0  0
    2.3381    0.4025   -0.5380 H   0  0  0  0  0  0  0  0  0  0  0  0
    2.8876    2.0609    0.4500 H   0  0  0  0  0  0  0  0  0  0  0  0
    1.8713    4.2035    0.8309 H   0  0  0  0  0  0  0  0  0  0  0  0
    3.2522    5.1920    2.7585 H   0  0  0  0  0  0  0  0  0  0  0  0
    1.6675    5.4745    4.6174 H   0  0  0  0  0  0  0  0  0  0  0  0
   -0.0458    7.2691    4.5337 H   0  0  0  0  0  0  0  0  0  0  0  0
   -0.1692    8.7734    2.5622 H   0  0  0  0  0  0  0  0  0  0  0  0
    1.3516    8.4222    0.6336 H   0  0  0  0  0  0  0  0  0  0  0  0
    5.2242    6.1422   -1.0401 H   0  0  0  0  0  0  0  0  0  0  0  0
    6.0435    3.9538   -1.8024 H   0  0  0  0  0  0  0  0  0  0  0  0
    7.3413    3.3512    0.0878 H   0  0  0  0  0  0  0  0  0  0  0  0
    8.9928    3.0803   -0.2875 H   0  0  0  0  0  0  0  0  0  0  0  0
    9.6376   -0.9578   -1.5699 H   0  0  0  0  0  0  0  0  0  0  0  0
    3.7217   -2.1291   -1.8198 H   0  0  0  0  0  0  0  0  0  0  0  0
    4.7212   -3.1311    0.0629 H   0  0  0  0  0  0  0  0  0  0  0  0
    6.3378   -3.0863   -0.6418 H   0  0  0  0  0  0  0  0  0  0  0  0
    4.0789   -4.9270   -1.3094 H   0  0  0  0  0  0  0  0  0  0  0  0
    5.8175   -5.1791   -1.4888 H   0  0  0  0  0  0  0  0  0  0  0  0
    3.8518   -4.2305   -3.4632 H   0  0  0  0  0  0  0  0  0  0  0  0
    5.5305   -4.6875   -3.7697 H   0  0  0  0  0  0  0  0  0  0  0  0
    4.7190   -2.0944   -4.0358 H   0  0  0  0  0  0  0  0  0  0  0  0
    6.3163   -2.4819   -3.3824 H   0  0  0  0  0  0  0  0  0  0  0  0
  1  2  1  0  0  0  0
  1 32  1  0  0  0  0
  1 33  1  0  0  0  0
  1 34  1  0  0  0  0
  2  3  1  0  0  0  0
  3  4  1  0  0  0  0
  3 35  1  0  0  0  0
  3 36  1  0  0  0  0
  4  5  2  0  0  0  0
  4 26  1  0  0  0  0
  5  6  1  0  0  0  0
  5 19  1  0  0  0  0
  6  7  1  0  0  0  0
  6 18  2  0  0  0  0
  7  8  2  0  0  0  0
  7 37  1  0  0  0  0
  8  9  1  0  0  0  0
  8 38  1  0  0  0  0
  9 10  1  0  0  0  0
  9 17  2  0  0  0  0
 10 11  1  0  0  0  0
 11 12  1  0  0  0  0
 11 16  2  0  0  0  0
 12 13  2  0  0  0  0
 12 39  1  0  0  0  0
 13 14  1  0  0  0  0
 13 40  1  0  0  0  0
 14 15  2  0  0  0  0
 14 41  1  0  0  0  0
 15 16  1  0  0  0  0
 15 42  1  0  0  0  0
 16 43  1  0  0  0  0
 17 18  1  0  0  0  0
 17 44  1  0  0  0  0
 18 45  1  0  0  0  0
 19 20  1  0  0  0  0
 19 25  2  0  0  0  0
 20 21  1  0  0  0  0
 20 22  2  0  0  0  0
 21 46  1  0  0  0  0
 21 47  1  0  0  0  0
 22 23  1  0  0  0  0
 23 24  2  0  0  0  0
 23 48  1  0  0  0  0
 24 25  1  0  0  0  0
 25 26  1  0  0  0  0
 26 27  1  0  0  0  0
 27 28  1  0  0  0  0
 27 31  1  0  0  0  0
 27 49  1  0  0  0  0
 28 29  1  0  0  0  0
 28 50  1  0  0  0  0
 28 51  1  0  0  0  0
 29 30  1  0  0  0  0
 29 52  1  0  0  0  0
 29 53  1  0  0  0  0
 30 31  1  0  0  0  0
 30 54  1  0  0  0  0
 30 55  1  0  0  0  0
 31 56  1  0  0  0  0
 31 57  1  0  0  0  0
M  END
$$$$
