CHEMBL3690555
 OpenBabel04072215373D

 51 54  0  0  0  0  0  0  0  0999 V2000
    6.8454    4.9906   -0.7946 C   0  0  0  0  0  0  0  0  0  0  0  0
    6.7495    3.3453   -0.0550 S   0  0  0  0  0  0  0  0  0  0  0  0
    4.9910    3.1504    0.1189 C   0  0  0  0  0  0  0  0  0  0  0  0
    4.5886    1.9648    0.5985 N   0  0  0  0  0  0  0  0  0  0  0  0
    3.2757    1.7721    0.7262 C   0  0  0  0  0  0  0  0  0  0  0  0
    2.8524    0.5299    1.1929 N   0  0  0  0  0  0  0  0  0  0  0  0
    2.3534    2.7262    0.3726 C   0  0  0  0  0  0  0  0  0  0  0  0
    2.8496    3.9362   -0.0735 C   0  0  0  0  0  0  0  0  0  0  0  0
    1.9470    5.0687   -0.4149 C   0  0  0  0  0  0  0  0  0  0  0  0
    2.2550    6.0234   -1.4886 C   0  0  0  0  0  0  0  0  0  0  0  0
    1.4250    7.0505   -1.7444 C   0  0  0  0  0  0  0  0  0  0  0  0
    0.2789    7.2288   -0.9653 N   0  0  0  0  0  0  0  0  0  0  0  0
   -0.7123    8.2065   -0.9809 C   0  0  0  0  0  0  0  0  0  0  0  0
   -0.8172    9.3852   -1.8531 C   0  0  0  0  0  0  0  0  0  0  0  0
   -2.0942    9.8131   -2.2456 C   0  0  0  0  0  0  0  0  0  0  0  0
   -2.2586   10.9388   -3.0450 C   0  0  0  0  0  0  0  0  0  0  0  0
   -1.1451   11.6605   -3.4672 C   0  0  0  0  0  0  0  0  0  0  0  0
    0.1400   11.2840   -3.0760 C   0  0  0  0  0  0  0  0  0  0  0  0
    1.3012   11.9962   -3.4580 N   0  0  0  0  0  0  0  0  0  0  0  0
    1.3393   13.1715   -4.1804 C   0  0  0  0  0  0  0  0  0  0  0  0
    0.3844   13.8194   -4.5887 O   0  0  0  0  0  0  0  0  0  0  0  0
    2.6264   13.5685   -4.4674 N   0  0  0  0  0  0  0  0  0  0  0  0
    2.8083   14.8321   -5.1971 C   0  0  0  0  0  0  0  0  0  0  0  0
    2.6644   16.1140   -4.3625 C   0  0  0  0  0  0  0  0  0  0  0  0
    2.5841   15.8508   -3.0378 F   0  0  0  0  0  0  0  0  0  0  0  0
    3.7571   16.9003   -4.5374 F   0  0  0  0  0  0  0  0  0  0  0  0
    1.5865   16.8438   -4.7152 F   0  0  0  0  0  0  0  0  0  0  0  0
    0.2938   10.1452   -2.2634 C   0  0  0  0  0  0  0  0  0  0  0  0
   -1.6066    7.7845   -0.0036 C   0  0  0  0  0  0  0  0  0  0  0  0
   -1.2018    6.6412    0.6197 N   0  0  0  0  0  0  0  0  0  0  0  0
   -0.0635    6.3330    0.0456 C   0  0  0  0  0  0  0  0  0  0  0  0
    0.8174    5.2496    0.3104 C   0  0  0  0  0  0  0  0  0  0  0  0
    4.1703    4.1610   -0.2224 N   0  0  0  0  0  0  0  0  0  0  0  0
    7.8951    5.2218   -0.9985 H   0  0  0  0  0  0  0  0  0  0  0  0
    6.4567    5.7485   -0.1092 H   0  0  0  0  0  0  0  0  0  0  0  0
    6.2994    5.0298   -1.7411 H   0  0  0  0  0  0  0  0  0  0  0  0
    3.6796   -0.0009    1.4588 H   0  0  0  0  0  0  0  0  0  0  0  0
    2.1912    0.6059    1.9584 H   0  0  0  0  0  0  0  0  0  0  0  0
    1.2933    2.5187    0.4440 H   0  0  0  0  0  0  0  0  0  0  0  0
    3.1591    5.8706   -2.0715 H   0  0  0  0  0  0  0  0  0  0  0  0
    1.6136    7.7492   -2.5464 H   0  0  0  0  0  0  0  0  0  0  0  0
   -2.9865    9.2762   -1.9306 H   0  0  0  0  0  0  0  0  0  0  0  0
   -3.2534   11.2624   -3.3399 H   0  0  0  0  0  0  0  0  0  0  0  0
   -1.3266   12.5195   -4.1038 H   0  0  0  0  0  0  0  0  0  0  0  0
    2.1872   11.6072   -3.1839 H   0  0  0  0  0  0  0  0  0  0  0  0
    3.3363   13.3269   -3.7917 H   0  0  0  0  0  0  0  0  0  0  0  0
    2.0897   14.8633   -6.0253 H   0  0  0  0  0  0  0  0  0  0  0  0
    3.8068   14.7889   -5.6402 H   0  0  0  0  0  0  0  0  0  0  0  0
    1.2872    9.8740   -1.9199 H   0  0  0  0  0  0  0  0  0  0  0  0
   -2.5323    8.2659    0.2884 H   0  0  0  0  0  0  0  0  0  0  0  0
    0.5316    4.6027    1.1318 H   0  0  0  0  0  0  0  0  0  0  0  0
  1  2  1  0  0  0  0
  1 34  1  0  0  0  0
  1 35  1  0  0  0  0
  1 36  1  0  0  0  0
  2  3  1  0  0  0  0
  3  4  1  0  0  0  0
  3 33  2  0  0  0  0
  4  5  2  0  0  0  0
  5  6  1  0  0  0  0
  5  7  1  0  0  0  0
  6 37  1  0  0  0  0
  6 38  1  0  0  0  0
  7  8  2  0  0  0  0
  7 39  1  0  0  0  0
  8  9  1  0  0  0  0
  8 33  1  0  0  0  0
  9 10  1  0  0  0  0
  9 32  2  0  0  0  0
 10 11  2  0  0  0  0
 10 40  1  0  0  0  0
 11 12  1  0  0  0  0
 11 41  1  0  0  0  0
 12 13  1  0  0  0  0
 12 31  1  0  0  0  0
 13 14  1  0  0  0  0
 13 29  2  0  0  0  0
 14 15  1  0  0  0  0
 14 28  2  0  0  0  0
 15 16  2  0  0  0  0
 15 42  1  0  0  0  0
 16 17  1  0  0  0  0
 16 43  1  0  0  0  0
 17 18  2  0  0  0  0
 17 44  1  0  0  0  0
 18 19  1  0  0  0  0
 18 28  1  0  0  0  0
 19 20  1  0  0  0  0
 19 45  1  0  0  0  0
 20 21  2  0  0  0  0
 20 22  1  0  0  0  0
 22 23  1  0  0  0  0
 22 46  1  0  0  0  0
 23 24  1  0  0  0  0
 23 47  1  0  0  0  0
 23 48  1  0  0  0  0
 24 25  1  0  0  0  0
 24 26  1  0  0  0  0
 24 27  1  0  0  0  0
 28 49  1  0  0  0  0
 29 30  1  0  0  0  0
 29 50  1  0  0  0  0
 30 31  2  0  0  0  0
 31 32  1  0  0  0  0
 32 51  1  0  0  0  0
M  END
$$$$
