CHEMBL3980816
 OpenBabel04072215373D

 40 43  0  0  0  0  0  0  0  0999 V2000
   -1.5257    1.0694   -1.8652 Br  0  0  0  0  0  0  0  0  0  0  0  0
    0.2546    0.6605   -1.3771 C   0  0  0  0  0  0  0  0  0  0  0  0
    0.7516   -0.6230   -1.6003 C   0  0  0  0  0  0  0  0  0  0  0  0
    2.0484   -0.9388   -1.1992 C   0  0  0  0  0  0  0  0  0  0  0  0
    2.8435    0.0304   -0.5858 C   0  0  0  0  0  0  0  0  0  0  0  0
    2.3709    1.3394   -0.4358 C   0  0  0  0  0  0  0  0  0  0  0  0
    3.1019    2.3780    0.1012 O   0  0  0  0  0  0  0  0  0  0  0  0
    4.4726    2.4029   -0.0511 C   0  0  0  0  0  0  0  0  0  0  0  0
    5.1367    1.9399   -1.1897 C   0  0  0  0  0  0  0  0  0  0  0  0
    6.5384    1.9078   -1.2464 C   0  0  0  0  0  0  0  0  0  0  0  0
    7.2770    2.4276   -0.1647 C   0  0  0  0  0  0  0  0  0  0  0  0
    8.6594    2.5633    0.1744 C   0  0  0  0  0  0  0  0  0  0  0  0
    9.7586    2.0948   -0.6249 C   0  0  0  0  0  0  0  0  0  0  0  0
   11.0513    2.2466   -0.2843 C   0  0  0  0  0  0  0  0  0  0  0  0
   12.2230    1.8105   -1.0599 C   0  0  0  0  0  0  0  0  0  0  0  0
   12.2184    1.6981   -2.4559 C   0  0  0  0  0  0  0  0  0  0  0  0
   13.3879    1.3645   -3.1475 C   0  0  0  0  0  0  0  0  0  0  0  0
   14.5758    1.1453   -2.4528 C   0  0  0  0  0  0  0  0  0  0  0  0
   14.5949    1.2526   -1.0653 C   0  0  0  0  0  0  0  0  0  0  0  0
   13.4267    1.5852   -0.3749 C   0  0  0  0  0  0  0  0  0  0  0  0
    8.8064    3.1875    1.3535 N   0  0  0  0  0  0  0  0  0  0  0  0
    7.5525    3.4376    1.7559 N   0  0  0  0  0  0  0  0  0  0  0  0
    6.5862    2.9716    0.9083 C   0  0  0  0  0  0  0  0  0  0  0  0
    5.1888    2.9800    1.0046 C   0  0  0  0  0  0  0  0  0  0  0  0
    1.0574    1.6438   -0.7995 C   0  0  0  0  0  0  0  0  0  0  0  0
    0.1361   -1.3838   -2.0729 H   0  0  0  0  0  0  0  0  0  0  0  0
    2.4421   -1.9391   -1.3617 H   0  0  0  0  0  0  0  0  0  0  0  0
    3.8389   -0.2478   -0.2496 H   0  0  0  0  0  0  0  0  0  0  0  0
    4.5768    1.5642   -2.0420 H   0  0  0  0  0  0  0  0  0  0  0  0
    7.0329    1.4866   -2.1154 H   0  0  0  0  0  0  0  0  0  0  0  0
    9.5054    1.5828   -1.5468 H   0  0  0  0  0  0  0  0  0  0  0  0
   11.2847    2.7405    0.6584 H   0  0  0  0  0  0  0  0  0  0  0  0
   11.3161    1.8926   -3.0285 H   0  0  0  0  0  0  0  0  0  0  0  0
   13.3739    1.2915   -4.2319 H   0  0  0  0  0  0  0  0  0  0  0  0
   15.4868    0.9007   -2.9926 H   0  0  0  0  0  0  0  0  0  0  0  0
   15.5199    1.0890   -0.5182 H   0  0  0  0  0  0  0  0  0  0  0  0
   13.4671    1.6741    0.7088 H   0  0  0  0  0  0  0  0  0  0  0  0
    7.4228    3.9293    2.6326 H   0  0  0  0  0  0  0  0  0  0  0  0
    4.6772    3.3996    1.8649 H   0  0  0  0  0  0  0  0  0  0  0  0
    0.6721    2.6462   -0.6348 H   0  0  0  0  0  0  0  0  0  0  0  0
  1  2  1  0  0  0  0
  2  3  1  0  0  0  0
  2 25  2  0  0  0  0
  3  4  2  0  0  0  0
  3 26  1  0  0  0  0
  4  5  1  0  0  0  0
  4 27  1  0  0  0  0
  5  6  2  0  0  0  0
  5 28  1  0  0  0  0
  6  7  1  0  0  0  0
  6 25  1  0  0  0  0
  7  8  1  0  0  0  0
  8  9  1  0  0  0  0
  8 24  2  0  0  0  0
  9 10  2  0  0  0  0
  9 29  1  0  0  0  0
 10 11  1  0  0  0  0
 10 30  1  0  0  0  0
 11 12  1  0  0  0  0
 11 23  2  0  0  0  0
 12 13  1  0  0  0  0
 12 21  2  0  0  0  0
 13 14  2  0  0  0  0
 13 31  1  0  0  0  0
 14 15  1  0  0  0  0
 14 32  1  0  0  0  0
 15 16  1  0  0  0  0
 15 20  2  0  0  0  0
 16 17  2  0  0  0  0
 16 33  1  0  0  0  0
 17 18  1  0  0  0  0
 17 34  1  0  0  0  0
 18 19  2  0  0  0  0
 18 35  1  0  0  0  0
 19 20  1  0  0  0  0
 19 36  1  0  0  0  0
 20 37  1  0  0  0  0
 21 22  1  0  0  0  0
 22 23  1  0  0  0  0
 22 38  1  0  0  0  0
 23 24  1  0  0  0  0
 24 39  1  0  0  0  0
 25 40  1  0  0  0  0
M  END
$$$$
