CHEMBL4799658
 OpenBabel04072215383D

 74 79  0  0  0  0  0  0  0  0999 V2000
    3.1056   -4.9268   -2.7747 C   0  0  0  0  0  0  0  0  0  0  0  0
    1.7396   -5.5418   -2.6740 C   0  0  0  0  0  0  0  0  0  0  0  0
    1.4945   -6.7488   -3.3174 C   0  0  0  0  0  0  0  0  0  0  0  0
    0.2402   -7.3350   -3.2316 C   0  0  0  0  0  0  0  0  0  0  0  0
   -0.8164   -6.7396   -2.5066 C   0  0  0  0  0  0  0  0  0  0  0  0
   -2.0790   -7.5493   -2.4777 C   0  0  0  0  0  0  0  0  0  0  0  0
   -0.6110   -5.4916   -1.8813 C   0  0  0  0  0  0  0  0  0  0  0  0
   -1.5732   -4.7232   -1.1509 N   0  0  0  0  0  0  0  0  0  0  0  0
   -2.9557   -4.8546   -1.0650 C   0  0  0  0  0  0  0  0  0  0  0  0
   -3.6519   -5.6726   -1.6486 O   0  0  0  0  0  0  0  0  0  0  0  0
   -3.5207   -3.8524   -0.2864 N   0  0  0  0  0  0  0  0  0  0  0  0
   -4.9235   -3.8832   -0.1748 C   0  0  0  0  0  0  0  0  0  0  0  0
   -5.4994   -4.7498    0.6634 N   0  0  0  0  0  0  0  0  0  0  0  0
   -6.8398   -4.6913    0.7259 C   0  0  0  0  0  0  0  0  0  0  0  0
   -7.6938   -5.7043    1.9338 S   0  0  0  0  0  0  0  0  0  0  0  0
   -7.4540   -7.3609    1.4159 C   0  0  0  0  0  0  0  0  0  0  0  0
   -6.7252   -7.8083    0.3393 C   0  0  0  0  0  0  0  0  0  0  0  0
   -6.7755   -9.1761    0.3330 N   0  0  0  0  0  0  0  0  0  0  0  0
   -7.5459   -9.6340    1.3774 C   0  0  0  0  0  0  0  0  0  0  0  0
   -7.8580  -10.9484    1.7519 C   0  0  0  0  0  0  0  0  0  0  0  0
   -8.6755  -11.1282    2.8732 C   0  0  0  0  0  0  0  0  0  0  0  0
   -9.1556  -10.0362    3.5864 C   0  0  0  0  0  0  0  0  0  0  0  0
   -8.8347   -8.7276    3.1971 C   0  0  0  0  0  0  0  0  0  0  0  0
   -8.0020   -8.5112    2.0733 C   0  0  0  0  0  0  0  0  0  0  0  0
   -7.5891   -3.8164   -0.0379 C   0  0  0  0  0  0  0  0  0  0  0  0
   -6.9207   -2.9752   -0.9061 C   0  0  0  0  0  0  0  0  0  0  0  0
   -7.5892   -2.1335   -1.7777 N   0  0  0  0  0  0  0  0  0  0  0  0
   -9.0064   -2.3027   -2.1397 C   0  0  0  0  0  0  0  0  0  0  0  0
   -9.1932   -2.3461   -3.6736 C   0  0  0  0  0  0  0  0  0  0  0  0
   -8.6049   -1.2048   -4.4071 N   0  0  0  0  0  0  0  0  0  0  0  0
   -9.2414    0.0859   -4.0855 C   0  0  0  0  0  0  0  0  0  0  0  0
  -10.7252    0.1746   -4.3807 C   0  0  0  0  0  0  0  0  0  0  0  0
  -11.6408    0.3926   -3.3379 C   0  0  0  0  0  0  0  0  0  0  0  0
  -13.0025    0.5468   -3.6044 C   0  0  0  0  0  0  0  0  0  0  0  0
  -13.4654    0.4890   -4.9168 C   0  0  0  0  0  0  0  0  0  0  0  0
  -12.5691    0.2646   -5.9610 C   0  0  0  0  0  0  0  0  0  0  0  0
  -11.2066    0.1026   -5.6950 C   0  0  0  0  0  0  0  0  0  0  0  0
   -7.1609   -1.1670   -4.0550 C   0  0  0  0  0  0  0  0  0  0  0  0
   -6.8403   -1.1158   -2.5367 C   0  0  0  0  0  0  0  0  0  0  0  0
   -5.5746   -2.9631   -0.9044 N   0  0  0  0  0  0  0  0  0  0  0  0
    0.6897   -4.9247   -1.9604 C   0  0  0  0  0  0  0  0  0  0  0  0
    3.7905   -5.5716   -3.3424 H   0  0  0  0  0  0  0  0  0  0  0  0
    3.5435   -4.7881   -1.7820 H   0  0  0  0  0  0  0  0  0  0  0  0
    3.0572   -3.9672   -3.2978 H   0  0  0  0  0  0  0  0  0  0  0  0
    2.2753   -7.2542   -3.8796 H   0  0  0  0  0  0  0  0  0  0  0  0
    0.0856   -8.2881   -3.7352 H   0  0  0  0  0  0  0  0  0  0  0  0
   -1.9035   -8.5817   -2.8011 H   0  0  0  0  0  0  0  0  0  0  0  0
   -2.8094   -7.1322   -3.1764 H   0  0  0  0  0  0  0  0  0  0  0  0
   -2.4647   -7.6322   -1.4583 H   0  0  0  0  0  0  0  0  0  0  0  0
   -1.1995   -3.9402   -0.6397 H   0  0  0  0  0  0  0  0  0  0  0  0
   -3.2493   -2.9504   -0.6419 H   0  0  0  0  0  0  0  0  0  0  0  0
   -6.1503   -7.2818   -0.4114 H   0  0  0  0  0  0  0  0  0  0  0  0
   -6.3038   -9.7702   -0.3338 H   0  0  0  0  0  0  0  0  0  0  0  0
   -7.4764  -11.8008    1.1995 H   0  0  0  0  0  0  0  0  0  0  0  0
   -8.9297  -12.1398    3.1893 H   0  0  0  0  0  0  0  0  0  0  0  0
   -9.7941  -10.2017    4.4519 H   0  0  0  0  0  0  0  0  0  0  0  0
   -9.2193   -7.8890    3.7701 H   0  0  0  0  0  0  0  0  0  0  0  0
   -8.6633   -3.7893    0.0771 H   0  0  0  0  0  0  0  0  0  0  0  0
   -9.5821   -1.4763   -1.7088 H   0  0  0  0  0  0  0  0  0  0  0  0
   -9.4416   -3.2265   -1.7484 H   0  0  0  0  0  0  0  0  0  0  0  0
  -10.2551   -2.4598   -3.9184 H   0  0  0  0  0  0  0  0  0  0  0  0
   -8.7190   -3.2646   -4.0497 H   0  0  0  0  0  0  0  0  0  0  0  0
   -8.7589    0.8719   -4.6815 H   0  0  0  0  0  0  0  0  0  0  0  0
   -9.0759    0.3692   -3.0402 H   0  0  0  0  0  0  0  0  0  0  0  0
  -11.2971    0.4599   -2.3083 H   0  0  0  0  0  0  0  0  0  0  0  0
  -13.6999    0.7246   -2.7897 H   0  0  0  0  0  0  0  0  0  0  0  0
  -14.5232    0.6247   -5.1267 H   0  0  0  0  0  0  0  0  0  0  0  0
  -12.9302    0.2259   -6.9856 H   0  0  0  0  0  0  0  0  0  0  0  0
  -10.5158   -0.0673   -6.5180 H   0  0  0  0  0  0  0  0  0  0  0  0
   -6.6789   -0.3199   -4.5588 H   0  0  0  0  0  0  0  0  0  0  0  0
   -6.6884   -2.0646   -4.4769 H   0  0  0  0  0  0  0  0  0  0  0  0
   -7.1037   -0.1293   -2.1368 H   0  0  0  0  0  0  0  0  0  0  0  0
   -5.7540   -1.2018   -2.4247 H   0  0  0  0  0  0  0  0  0  0  0  0
    0.9009   -3.9718   -1.4765 H   0  0  0  0  0  0  0  0  0  0  0  0
  1  2  1  0  0  0  0
  1 42  1  0  0  0  0
  1 43  1  0  0  0  0
  1 44  1  0  0  0  0
  2  3  1  0  0  0  0
  2 41  2  0  0  0  0
  3  4  2  0  0  0  0
  3 45  1  0  0  0  0
  4  5  1  0  0  0  0
  4 46  1  0  0  0  0
  5  6  1  0  0  0  0
  5  7  2  0  0  0  0
  6 47  1  0  0  0  0
  6 48  1  0  0  0  0
  6 49  1  0  0  0  0
  7  8  1  0  0  0  0
  7 41  1  0  0  0  0
  8  9  1  0  0  0  0
  8 50  1  0  0  0  0
  9 10  2  0  0  0  0
  9 11  1  0  0  0  0
 11 12  1  0  0  0  0
 11 51  1  0  0  0  0
 12 13  1  0  0  0  0
 12 40  2  0  0  0  0
 13 14  2  0  0  0  0
 14 15  1  0  0  0  0
 14 25  1  0  0  0  0
 15 16  1  0  0  0  0
 16 17  2  0  0  0  0
 16 24  1  0  0  0  0
 17 18  1  0  0  0  0
 17 52  1  0  0  0  0
 18 19  1  0  0  0  0
 18 53  1  0  0  0  0
 19 20  1  0  0  0  0
 19 24  2  0  0  0  0
 20 21  2  0  0  0  0
 20 54  1  0  0  0  0
 21 22  1  0  0  0  0
 21 55  1  0  0  0  0
 22 23  2  0  0  0  0
 22 56  1  0  0  0  0
 23 24  1  0  0  0  0
 23 57  1  0  0  0  0
 25 26  2  0  0  0  0
 25 58  1  0  0  0  0
 26 27  1  0  0  0  0
 26 40  1  0  0  0  0
 27 28  1  0  0  0  0
 27 39  1  0  0  0  0
 28 29  1  0  0  0  0
 28 59  1  0  0  0  0
 28 60  1  0  0  0  0
 29 30  1  0  0  0  0
 29 61  1  0  0  0  0
 29 62  1  0  0  0  0
 30 31  1  0  0  0  0
 30 38  1  0  0  0  0
 31 32  1  0  0  0  0
 31 63  1  0  0  0  0
 31 64  1  0  0  0  0
 32 33  1  0  0  0  0
 32 37  2  0  0  0  0
 33 34  2  0  0  0  0
 33 65  1  0  0  0  0
 34 35  1  0  0  0  0
 34 66  1  0  0  0  0
 35 36  2  0  0  0  0
 35 67  1  0  0  0  0
 36 37  1  0  0  0  0
 36 68  1  0  0  0  0
 37 69  1  0  0  0  0
 38 39  1  0  0  0  0
 38 70  1  0  0  0  0
 38 71  1  0  0  0  0
 39 72  1  0  0  0  0
 39 73  1  0  0  0  0
 41 74  1  0  0  0  0
M  END
$$$$
