CHEMBL78303
 OpenBabel04072215383D

 43 46  0  0  0  0  0  0  0  0999 V2000
    2.7334   -4.3876    0.5656 C   0  0  0  0  0  0  0  0  0  0  0  0
    1.2959   -4.3484    0.9882 C   0  0  0  0  0  0  0  0  0  0  0  0
    0.8389   -5.1373    2.0471 C   0  0  0  0  0  0  0  0  0  0  0  0
   -0.4982   -5.0852    2.4233 C   0  0  0  0  0  0  0  0  0  0  0  0
   -1.3917   -4.2609    1.7364 C   0  0  0  0  0  0  0  0  0  0  0  0
   -0.9756   -3.4830    0.6524 C   0  0  0  0  0  0  0  0  0  0  0  0
   -1.8330   -2.6723   -0.1184 N   0  0  0  0  0  0  0  0  0  0  0  0
   -3.2428   -2.5879   -0.1661 C   0  0  0  0  0  0  0  0  0  0  0  0
   -3.9669   -3.2050    0.7894 N   0  0  0  0  0  0  0  0  0  0  0  0
   -5.3215   -3.1659    0.8063 N   0  0  0  0  0  0  0  0  0  0  0  0
   -5.9877   -2.4626   -0.1299 C   0  0  0  0  0  0  0  0  0  0  0  0
   -7.4854   -2.6400   -0.0730 C   0  0  0  0  0  0  0  0  0  0  0  0
   -7.9861   -3.7350   -0.9920 C   0  0  0  0  0  0  0  0  0  0  0  0
   -7.5800   -5.0627   -0.8135 C   0  0  0  0  0  0  0  0  0  0  0  0
   -8.0334   -6.0275   -1.7008 C   0  0  0  0  0  0  0  0  0  0  0  0
   -8.8640   -5.7659   -2.7319 N   0  0  0  0  0  0  0  0  0  0  0  0
   -9.2576   -4.4840   -2.8785 C   0  0  0  0  0  0  0  0  0  0  0  0
   -8.8562   -3.4483   -2.0468 C   0  0  0  0  0  0  0  0  0  0  0  0
   -5.3101   -1.7365   -1.1276 C   0  0  0  0  0  0  0  0  0  0  0  0
   -5.9715   -0.9238   -2.0822 C   0  0  0  0  0  0  0  0  0  0  0  0
   -5.2779   -0.2704   -3.1009 C   0  0  0  0  0  0  0  0  0  0  0  0
   -3.9076   -0.4306   -3.2056 C   0  0  0  0  0  0  0  0  0  0  0  0
   -3.2280   -1.1954   -2.2574 C   0  0  0  0  0  0  0  0  0  0  0  0
   -3.8973   -1.8378   -1.1768 C   0  0  0  0  0  0  0  0  0  0  0  0
    0.3878   -3.5203    0.3112 C   0  0  0  0  0  0  0  0  0  0  0  0
    3.3060   -5.1081    1.1590 H   0  0  0  0  0  0  0  0  0  0  0  0
    3.1918   -3.4022    0.6946 H   0  0  0  0  0  0  0  0  0  0  0  0
    2.8075   -4.6865   -0.4851 H   0  0  0  0  0  0  0  0  0  0  0  0
    1.5169   -5.7947    2.5829 H   0  0  0  0  0  0  0  0  0  0  0  0
   -0.8580   -5.6924    3.2501 H   0  0  0  0  0  0  0  0  0  0  0  0
   -2.4211   -4.2578    2.0788 H   0  0  0  0  0  0  0  0  0  0  0  0
   -1.3635   -2.2354   -0.8928 H   0  0  0  0  0  0  0  0  0  0  0  0
   -7.9963   -1.6910   -0.2697 H   0  0  0  0  0  0  0  0  0  0  0  0
   -7.7790   -2.9050    0.9535 H   0  0  0  0  0  0  0  0  0  0  0  0
   -6.9094   -5.3495   -0.0075 H   0  0  0  0  0  0  0  0  0  0  0  0
   -7.7276   -7.0649   -1.6024 H   0  0  0  0  0  0  0  0  0  0  0  0
   -9.9267   -4.3008   -3.7141 H   0  0  0  0  0  0  0  0  0  0  0  0
   -9.2174   -2.4433   -2.2281 H   0  0  0  0  0  0  0  0  0  0  0  0
   -7.0476   -0.7751   -2.0413 H   0  0  0  0  0  0  0  0  0  0  0  0
   -5.8111    0.3503   -3.8156 H   0  0  0  0  0  0  0  0  0  0  0  0
   -3.3621    0.0396   -4.0202 H   0  0  0  0  0  0  0  0  0  0  0  0
   -2.1553   -1.2912   -2.3974 H   0  0  0  0  0  0  0  0  0  0  0  0
    0.7562   -2.9086   -0.5100 H   0  0  0  0  0  0  0  0  0  0  0  0
  1  2  1  0  0  0  0
  1 26  1  0  0  0  0
  1 27  1  0  0  0  0
  1 28  1  0  0  0  0
  2  3  1  0  0  0  0
  2 25  2  0  0  0  0
  3  4  2  0  0  0  0
  3 29  1  0  0  0  0
  4  5  1  0  0  0  0
  4 30  1  0  0  0  0
  5  6  2  0  0  0  0
  5 31  1  0  0  0  0
  6  7  1  0  0  0  0
  6 25  1  0  0  0  0
  7  8  1  0  0  0  0
  7 32  1  0  0  0  0
  8  9  1  0  0  0  0
  8 24  2  0  0  0  0
  9 10  2  0  0  0  0
 10 11  1  0  0  0  0
 11 12  1  0  0  0  0
 11 19  2  0  0  0  0
 12 13  1  0  0  0  0
 12 33  1  0  0  0  0
 12 34  1  0  0  0  0
 13 14  1  0  0  0  0
 13 18  2  0  0  0  0
 14 15  2  0  0  0  0
 14 35  1  0  0  0  0
 15 16  1  0  0  0  0
 15 36  1  0  0  0  0
 16 17  2  0  0  0  0
 17 18  1  0  0  0  0
 17 37  1  0  0  0  0
 18 38  1  0  0  0  0
 19 20  1  0  0  0  0
 19 24  1  0  0  0  0
 20 21  2  0  0  0  0
 20 39  1  0  0  0  0
 21 22  1  0  0  0  0
 21 40  1  0  0  0  0
 22 23  2  0  0  0  0
 22 41  1  0  0  0  0
 23 24  1  0  0  0  0
 23 42  1  0  0  0  0
 25 43  1  0  0  0  0
M  END
$$$$
