CHEMBL250197
 OpenBabel04072215363D

 33 36  0  0  0  0  0  0  0  0999 V2000
    0.8871   -0.1964   -0.0827 C   0  0  0  0  0  0  0  0  0  0  0  0
    2.3296   -0.0913   -0.0782 N   0  0  0  0  0  0  0  0  0  0  0  0
    3.0169    1.0880   -0.0387 C   0  0  0  0  0  0  0  0  0  0  0  0
    4.3638    0.8080   -0.0496 C   0  0  0  0  0  0  0  0  0  0  0  0
    5.3957    1.7924    0.0511 C   0  0  0  0  0  0  0  0  0  0  0  0
    5.4580    3.0508   -0.4077 C   0  0  0  0  0  0  0  0  0  0  0  0
    4.5242    3.8229   -1.2637 C   0  0  0  0  0  0  0  0  0  0  0  0
    3.3995    3.5593   -1.6349 O   0  0  0  0  0  0  0  0  0  0  0  0
    5.2446    4.9685   -1.5608 N   0  0  0  0  0  0  0  0  0  0  0  0
    6.4675    5.0685   -0.9449 N   0  0  0  0  0  0  0  0  0  0  0  0
    6.6176    3.9752   -0.2337 C   0  0  0  0  0  0  0  0  0  0  0  0
    7.7462    3.7786    0.6249 C   0  0  0  0  0  0  0  0  0  0  0  0
    7.8980    3.1122    1.8273 C   0  0  0  0  0  0  0  0  0  0  0  0
    9.1658    3.1577    2.3830 N   0  0  0  0  0  0  0  0  0  0  0  0
    9.9949    3.8687    1.6393 N   0  0  0  0  0  0  0  0  0  0  0  0
    9.2659    4.4971    0.2713 S   0  0  0  0  0  0  0  0  0  0  0  0
    4.5076   -0.6304   -0.0635 C   0  0  0  0  0  0  0  0  0  0  0  0
    5.5789   -1.5660   -0.0629 C   0  0  0  0  0  0  0  0  0  0  0  0
    7.4044   -1.0430   -0.0942 Br  0  0  0  0  0  0  0  0  0  0  0  0
    5.3200   -2.9456   -0.0537 C   0  0  0  0  0  0  0  0  0  0  0  0
    4.0160   -3.4225   -0.0573 C   0  0  0  0  0  0  0  0  0  0  0  0
    2.9397   -2.5378   -0.0731 C   0  0  0  0  0  0  0  0  0  0  0  0
    3.2028   -1.1564   -0.0711 C   0  0  0  0  0  0  0  0  0  0  0  0
    0.4464    0.8038   -0.0829 H   0  0  0  0  0  0  0  0  0  0  0  0
    0.5788   -0.7349    0.8172 H   0  0  0  0  0  0  0  0  0  0  0  0
    0.5816   -0.7354   -0.9827 H   0  0  0  0  0  0  0  0  0  0  0  0
    2.4815    2.0280    0.0005 H   0  0  0  0  0  0  0  0  0  0  0  0
    6.2676    1.4275    0.5819 H   0  0  0  0  0  0  0  0  0  0  0  0
    4.8838    5.7267   -2.1279 H   0  0  0  0  0  0  0  0  0  0  0  0
    7.1250    2.5847    2.3702 H   0  0  0  0  0  0  0  0  0  0  0  0
    6.1410   -3.6591   -0.0472 H   0  0  0  0  0  0  0  0  0  0  0  0
    3.8318   -4.4945   -0.0520 H   0  0  0  0  0  0  0  0  0  0  0  0
    1.9223   -2.9180   -0.0805 H   0  0  0  0  0  0  0  0  0  0  0  0
  1  2  1  0  0  0  0
  1 24  1  0  0  0  0
  1 25  1  0  0  0  0
  1 26  1  0  0  0  0
  2  3  1  0  0  0  0
  2 23  1  0  0  0  0
  3  4  2  0  0  0  0
  3 27  1  0  0  0  0
  4  5  1  0  0  0  0
  4 17  1  0  0  0  0
  5  6  2  0  0  0  0
  5 28  1  0  0  0  0
  6  7  1  0  0  0  0
  6 11  1  0  0  0  0
  7  8  2  0  0  0  0
  7  9  1  0  0  0  0
  9 10  1  0  0  0  0
  9 29  1  0  0  0  0
 10 11  2  0  0  0  0
 11 12  1  0  0  0  0
 12 13  2  0  0  0  0
 12 16  1  0  0  0  0
 13 14  1  0  0  0  0
 13 30  1  0  0  0  0
 14 15  2  0  0  0  0
 15 16  1  0  0  0  0
 17 18  1  0  0  0  0
 17 23  2  0  0  0  0
 18 19  1  0  0  0  0
 18 20  2  0  0  0  0
 20 21  1  0  0  0  0
 20 31  1  0  0  0  0
 21 22  2  0  0  0  0
 21 32  1  0  0  0  0
 22 23  1  0  0  0  0
 22 33  1  0  0  0  0
M  END
$$$$
