CHEMBL329201
 OpenBabel04072215363D

 33 36  0  0  0  0  0  0  0  0999 V2000
    2.1288    0.1796   -0.1245 F   0  0  0  0  0  0  0  0  0  0  0  0
    0.7912    0.1248   -0.0994 C   0  0  0  0  0  0  0  0  0  0  0  0
    0.0852    0.0998   -1.2942 C   0  0  0  0  0  0  0  0  0  0  0  0
   -1.3096    0.0502   -1.2671 C   0  0  0  0  0  0  0  0  0  0  0  0
   -2.0048    0.0349   -0.0476 C   0  0  0  0  0  0  0  0  0  0  0  0
   -3.4596    0.0079   -0.0076 C   0  0  0  0  0  0  0  0  0  0  0  0
   -4.3267   -0.5451    0.9592 C   0  0  0  0  0  0  0  0  0  0  0  0
   -5.6171   -0.3532    0.6834 N   0  0  0  0  0  0  0  0  0  0  0  0
   -5.6097    0.3398   -0.4804 N   0  0  0  0  0  0  0  0  0  0  0  0
   -6.7150    0.8087   -1.1830 C   0  0  0  0  0  0  0  0  0  0  0  0
   -6.5564    1.4890   -2.3298 C   0  0  0  0  0  0  0  0  0  0  0  0
   -7.6755    2.0192   -3.1039 C   0  0  0  0  0  0  0  0  0  0  0  0
   -8.1582    3.3059   -2.8595 C   0  0  0  0  0  0  0  0  0  0  0  0
   -9.2251    3.7617   -3.6164 C   0  0  0  0  0  0  0  0  0  0  0  0
   -9.8274    3.0307   -4.5777 N   0  0  0  0  0  0  0  0  0  0  0  0
   -9.3464    1.7881   -4.7923 C   0  0  0  0  0  0  0  0  0  0  0  0
   -8.2844    1.2424   -4.0900 C   0  0  0  0  0  0  0  0  0  0  0  0
   -5.1339    1.6670   -2.7560 C   0  0  0  0  0  0  0  0  0  0  0  0
   -4.0813    1.2493   -2.1190 N   0  0  0  0  0  0  0  0  0  0  0  0
   -4.3090    0.5701   -0.9472 C   0  0  0  0  0  0  0  0  0  0  0  0
   -1.2676    0.0483    1.1485 C   0  0  0  0  0  0  0  0  0  0  0  0
    0.1289    0.0954    1.1212 C   0  0  0  0  0  0  0  0  0  0  0  0
    0.6174    0.1250   -2.2391 H   0  0  0  0  0  0  0  0  0  0  0  0
   -1.8469    0.0277   -2.2124 H   0  0  0  0  0  0  0  0  0  0  0  0
   -4.0665   -1.0877    1.8594 H   0  0  0  0  0  0  0  0  0  0  0  0
   -7.6765    0.5914   -0.7379 H   0  0  0  0  0  0  0  0  0  0  0  0
   -7.7227    3.9457   -2.0987 H   0  0  0  0  0  0  0  0  0  0  0  0
   -9.6375    4.7557   -3.4654 H   0  0  0  0  0  0  0  0  0  0  0  0
   -9.8548    1.2235   -5.5690 H   0  0  0  0  0  0  0  0  0  0  0  0
   -7.9488    0.2348   -4.3121 H   0  0  0  0  0  0  0  0  0  0  0  0
   -4.9879    2.2046   -3.7084 H   0  0  0  0  0  0  0  0  0  0  0  0
   -1.7680    0.0424    2.1138 H   0  0  0  0  0  0  0  0  0  0  0  0
    0.7014    0.1161    2.0436 H   0  0  0  0  0  0  0  0  0  0  0  0
  1  2  1  0  0  0  0
  2  3  1  0  0  0  0
  2 22  2  0  0  0  0
  3  4  2  0  0  0  0
  3 23  1  0  0  0  0
  4  5  1  0  0  0  0
  4 24  1  0  0  0  0
  5  6  1  0  0  0  0
  5 21  2  0  0  0  0
  6  7  1  0  0  0  0
  6 20  2  0  0  0  0
  7  8  2  0  0  0  0
  7 25  1  0  0  0  0
  8  9  1  0  0  0  0
  9 10  1  0  0  0  0
  9 20  1  0  0  0  0
 10 11  2  0  0  0  0
 10 26  1  0  0  0  0
 11 12  1  0  0  0  0
 11 18  1  0  0  0  0
 12 13  1  0  0  0  0
 12 17  2  0  0  0  0
 13 14  2  0  0  0  0
 13 27  1  0  0  0  0
 14 15  1  0  0  0  0
 14 28  1  0  0  0  0
 15 16  2  0  0  0  0
 16 17  1  0  0  0  0
 16 29  1  0  0  0  0
 17 30  1  0  0  0  0
 18 19  2  0  0  0  0
 18 31  1  0  0  0  0
 19 20  1  0  0  0  0
 21 22  1  0  0  0  0
 21 32  1  0  0  0  0
 22 33  1  0  0  0  0
M  END
$$$$
