CHEMBL360724
 OpenBabel04072215363D

 46 49  0  0  0  0  0  0  0  0999 V2000
   -1.6663   -2.7755   -1.4853 C   0  0  0  0  0  0  0  0  0  0  0  0
   -0.9042   -1.4754   -1.4400 C   0  0  0  0  0  0  0  0  0  0  0  0
   -1.5809   -0.3135   -1.8711 C   0  0  0  0  0  0  0  0  0  0  0  0
   -0.9585    0.9333   -1.8691 C   0  0  0  0  0  0  0  0  0  0  0  0
    0.3382    1.0435   -1.4049 C   0  0  0  0  0  0  0  0  0  0  0  0
    1.0089   -0.0914   -0.9565 C   0  0  0  0  0  0  0  0  0  0  0  0
    0.4232   -1.3686   -0.9871 C   0  0  0  0  0  0  0  0  0  0  0  0
    1.1591   -2.5224   -0.5878 N   0  0  0  0  0  0  0  0  0  0  0  0
    2.5353   -2.5562   -0.4271 C   0  0  0  0  0  0  0  0  0  0  0  0
    3.2904   -1.6089   -0.6221 O   0  0  0  0  0  0  0  0  0  0  0  0
    3.0169   -3.8111   -0.0655 N   0  0  0  0  0  0  0  0  0  0  0  0
    4.4175   -3.9639    0.1160 C   0  0  0  0  0  0  0  0  0  0  0  0
    5.1529   -3.0575    0.8836 C   0  0  0  0  0  0  0  0  0  0  0  0
    6.5521   -3.1081    0.9030 C   0  0  0  0  0  0  0  0  0  0  0  0
    7.2613   -4.0827    0.1800 C   0  0  0  0  0  0  0  0  0  0  0  0
    8.7464   -4.1024    0.1693 C   0  0  0  0  0  0  0  0  0  0  0  0
    9.4799   -3.7742    1.3378 C   0  0  0  0  0  0  0  0  0  0  0  0
   10.8901   -3.7860    1.3875 C   0  0  0  0  0  0  0  0  0  0  0  0
   11.6295   -4.1345    0.2653 C   0  0  0  0  0  0  0  0  0  0  0  0
   10.9203   -4.4407   -0.8775 C   0  0  0  0  0  0  0  0  0  0  0  0
    9.5179   -4.4242   -0.9522 C   0  0  0  0  0  0  0  0  0  0  0  0
    9.1161   -4.7675   -2.3546 C   0  0  0  0  0  0  0  0  0  0  0  0
   10.3773   -4.9649   -3.0251 N   0  0  0  0  0  0  0  0  0  0  0  0
   11.4560   -4.8234   -2.1874 C   0  0  0  0  0  0  0  0  0  0  0  0
   12.6254   -4.9934   -2.4646 O   0  0  0  0  0  0  0  0  0  0  0  0
    6.4898   -5.0343   -0.5140 C   0  0  0  0  0  0  0  0  0  0  0  0
    5.0875   -4.9818   -0.5498 C   0  0  0  0  0  0  0  0  0  0  0  0
   -2.6038   -2.6655   -2.0446 H   0  0  0  0  0  0  0  0  0  0  0  0
   -1.9225   -3.1019   -0.4730 H   0  0  0  0  0  0  0  0  0  0  0  0
   -1.0884   -3.5531   -1.9930 H   0  0  0  0  0  0  0  0  0  0  0  0
   -2.6062   -0.3759   -2.2313 H   0  0  0  0  0  0  0  0  0  0  0  0
   -1.4839    1.8127   -2.2282 H   0  0  0  0  0  0  0  0  0  0  0  0
    0.8467    2.0033   -1.3859 H   0  0  0  0  0  0  0  0  0  0  0  0
    2.0077    0.0732   -0.5644 H   0  0  0  0  0  0  0  0  0  0  0  0
    0.6543   -3.3908   -0.4991 H   0  0  0  0  0  0  0  0  0  0  0  0
    2.5389   -4.5844   -0.5032 H   0  0  0  0  0  0  0  0  0  0  0  0
    4.6481   -2.2712    1.4415 H   0  0  0  0  0  0  0  0  0  0  0  0
    7.0758   -2.3417    1.4716 H   0  0  0  0  0  0  0  0  0  0  0  0
    8.9540   -3.5065    2.2541 H   0  0  0  0  0  0  0  0  0  0  0  0
   11.3997   -3.5247    2.3124 H   0  0  0  0  0  0  0  0  0  0  0  0
   12.7139   -4.1616    0.2760 H   0  0  0  0  0  0  0  0  0  0  0  0
    8.5737   -3.9572   -2.8486 H   0  0  0  0  0  0  0  0  0  0  0  0
    8.5749   -5.7124   -2.4211 H   0  0  0  0  0  0  0  0  0  0  0  0
   10.4937   -5.2876   -3.9762 H   0  0  0  0  0  0  0  0  0  0  0  0
    6.9673   -5.8442   -1.0547 H   0  0  0  0  0  0  0  0  0  0  0  0
    4.5502   -5.6984   -1.1631 H   0  0  0  0  0  0  0  0  0  0  0  0
  1  2  1  0  0  0  0
  1 28  1  0  0  0  0
  1 29  1  0  0  0  0
  1 30  1  0  0  0  0
  2  3  1  0  0  0  0
  2  7  2  0  0  0  0
  3  4  2  0  0  0  0
  3 31  1  0  0  0  0
  4  5  1  0  0  0  0
  4 32  1  0  0  0  0
  5  6  2  0  0  0  0
  5 33  1  0  0  0  0
  6  7  1  0  0  0  0
  6 34  1  0  0  0  0
  7  8  1  0  0  0  0
  8  9  1  0  0  0  0
  8 35  1  0  0  0  0
  9 10  2  0  0  0  0
  9 11  1  0  0  0  0
 11 12  1  0  0  0  0
 11 36  1  0  0  0  0
 12 13  1  0  0  0  0
 12 27  2  0  0  0  0
 13 14  2  0  0  0  0
 13 37  1  0  0  0  0
 14 15  1  0  0  0  0
 14 38  1  0  0  0  0
 15 16  1  0  0  0  0
 15 26  2  0  0  0  0
 16 17  1  0  0  0  0
 16 21  2  0  0  0  0
 17 18  2  0  0  0  0
 17 39  1  0  0  0  0
 18 19  1  0  0  0  0
 18 40  1  0  0  0  0
 19 20  2  0  0  0  0
 19 41  1  0  0  0  0
 20 21  1  0  0  0  0
 20 24  1  0  0  0  0
 21 22  1  0  0  0  0
 22 23  1  0  0  0  0
 22 42  1  0  0  0  0
 22 43  1  0  0  0  0
 23 24  1  0  0  0  0
 23 44  1  0  0  0  0
 24 25  2  0  0  0  0
 26 27  1  0  0  0  0
 26 45  1  0  0  0  0
 27 46  1  0  0  0  0
M  END
$$$$
