CHEMBL217091
 OpenBabel04072215363D

 45 49  0  0  0  0  0  0  0  0999 V2000
    1.1490    0.2690   -0.3705 C   0  0  0  0  0  0  0  0  0  0  0  0
    2.5721    0.3105   -0.2588 O   0  0  0  0  0  0  0  0  0  0  0  0
    3.0591   -0.1160    0.9459 C   0  0  0  0  0  0  0  0  0  0  0  0
    2.4891   -1.1241    1.6983 C   0  0  0  0  0  0  0  0  0  0  0  0
    2.9796   -1.3956    2.9858 C   0  0  0  0  0  0  0  0  0  0  0  0
    2.2719   -2.2665    3.7976 O   0  0  0  0  0  0  0  0  0  0  0  0
    0.9052   -2.0600    3.8998 C   0  0  0  0  0  0  0  0  0  0  0  0
    0.1138   -3.1842    4.1028 C   0  0  0  0  0  0  0  0  0  0  0  0
   -1.2596   -3.0105    4.1644 C   0  0  0  0  0  0  0  0  0  0  0  0
   -1.8751   -1.8148    4.0354 N   0  0  0  0  0  0  0  0  0  0  0  0
   -1.0809   -0.7372    3.8708 C   0  0  0  0  0  0  0  0  0  0  0  0
    0.2998   -0.8037    3.8173 C   0  0  0  0  0  0  0  0  0  0  0  0
    4.1742   -0.7822    3.4655 C   0  0  0  0  0  0  0  0  0  0  0  0
    4.8446   -1.0122    4.6938 C   0  0  0  0  0  0  0  0  0  0  0  0
    4.3462   -1.9673    5.6212 N   0  0  0  0  0  0  0  0  0  0  0  0
    4.7893   -2.1044    6.9615 C   0  0  0  0  0  0  0  0  0  0  0  0
    4.8205   -1.0450    7.8968 C   0  0  0  0  0  0  0  0  0  0  0  0
    4.1696    0.5235    7.5426 Cl  0  0  0  0  0  0  0  0  0  0  0  0
    5.3080   -1.2359    9.2087 C   0  0  0  0  0  0  0  0  0  0  0  0
    5.7619   -2.4853    9.6279 C   0  0  0  0  0  0  0  0  0  0  0  0
    5.7092   -3.5153    8.7166 C   0  0  0  0  0  0  0  0  0  0  0  0
    5.2405   -3.3371    7.4303 C   0  0  0  0  0  0  0  0  0  0  0  0
    5.2870   -4.5005    6.7127 O   0  0  0  0  0  0  0  0  0  0  0  0
    5.8320   -5.4120    7.6932 C   0  0  0  0  0  0  0  0  0  0  0  0
    6.0983   -4.7938    8.9655 O   0  0  0  0  0  0  0  0  0  0  0  0
    5.9639   -0.3425    5.0330 N   0  0  0  0  0  0  0  0  0  0  0  0
    6.4101    0.5773    4.1826 C   0  0  0  0  0  0  0  0  0  0  0  0
    5.8671    0.8733    3.0007 N   0  0  0  0  0  0  0  0  0  0  0  0
    4.7721    0.1962    2.6500 C   0  0  0  0  0  0  0  0  0  0  0  0
    4.2017    0.5185    1.4229 C   0  0  0  0  0  0  0  0  0  0  0  0
    0.8686    0.7758   -1.2981 H   0  0  0  0  0  0  0  0  0  0  0  0
    0.6702    0.8012    0.4617 H   0  0  0  0  0  0  0  0  0  0  0  0
    0.7823   -0.7600   -0.4361 H   0  0  0  0  0  0  0  0  0  0  0  0
    1.6328   -1.6799    1.3322 H   0  0  0  0  0  0  0  0  0  0  0  0
    0.5486   -4.1722    4.1961 H   0  0  0  0  0  0  0  0  0  0  0  0
   -1.9261   -3.8546    4.3194 H   0  0  0  0  0  0  0  0  0  0  0  0
   -1.5991    0.2130    3.7741 H   0  0  0  0  0  0  0  0  0  0  0  0
    0.8721    0.1083    3.6911 H   0  0  0  0  0  0  0  0  0  0  0  0
    4.2610   -2.8719    5.1647 H   0  0  0  0  0  0  0  0  0  0  0  0
    5.3172   -0.4042    9.9095 H   0  0  0  0  0  0  0  0  0  0  0  0
    6.1312   -2.6436   10.6348 H   0  0  0  0  0  0  0  0  0  0  0  0
    6.7684   -5.8318    7.3075 H   0  0  0  0  0  0  0  0  0  0  0  0
    5.1201   -6.2314    7.8475 H   0  0  0  0  0  0  0  0  0  0  0  0
    7.2865    1.1411    4.4794 H   0  0  0  0  0  0  0  0  0  0  0  0
    4.6570    1.3064    0.8241 H   0  0  0  0  0  0  0  0  0  0  0  0
  1  2  1  0  0  0  0
  1 31  1  0  0  0  0
  1 32  1  0  0  0  0
  1 33  1  0  0  0  0
  2  3  1  0  0  0  0
  3  4  1  0  0  0  0
  3 30  2  0  0  0  0
  4  5  2  0  0  0  0
  4 34  1  0  0  0  0
  5  6  1  0  0  0  0
  5 13  1  0  0  0  0
  6  7  1  0  0  0  0
  7  8  1  0  0  0  0
  7 12  2  0  0  0  0
  8  9  2  0  0  0  0
  8 35  1  0  0  0  0
  9 10  1  0  0  0  0
  9 36  1  0  0  0  0
 10 11  2  0  0  0  0
 11 12  1  0  0  0  0
 11 37  1  0  0  0  0
 12 38  1  0  0  0  0
 13 14  1  0  0  0  0
 13 29  2  0  0  0  0
 14 15  1  0  0  0  0
 14 26  2  0  0  0  0
 15 16  1  0  0  0  0
 15 39  1  0  0  0  0
 16 17  1  0  0  0  0
 16 22  2  0  0  0  0
 17 18  1  0  0  0  0
 17 19  2  0  0  0  0
 19 20  1  0  0  0  0
 19 40  1  0  0  0  0
 20 21  2  0  0  0  0
 20 41  1  0  0  0  0
 21 22  1  0  0  0  0
 21 25  1  0  0  0  0
 22 23  1  0  0  0  0
 23 24  1  0  0  0  0
 24 25  1  0  0  0  0
 24 42  1  0  0  0  0
 24 43  1  0  0  0  0
 26 27  1  0  0  0  0
 27 28  2  0  0  0  0
 27 44  1  0  0  0  0
 28 29  1  0  0  0  0
 29 30  1  0  0  0  0
 30 45  1  0  0  0  0
M  END
$$$$
