CHEMBL3660268
 OpenBabel04072215373D

 54 57  0  0  0  0  0  0  0  0999 V2000
    2.7891    0.7260   -2.4164 C   0  0  0  0  0  0  0  0  0  0  0  0
    1.3825    0.4759   -1.9513 C   0  0  0  0  0  0  0  0  0  0  0  0
    0.8574   -0.8183   -2.0183 C   0  0  0  0  0  0  0  0  0  0  0  0
   -0.4320   -1.0668   -1.5678 C   0  0  0  0  0  0  0  0  0  0  0  0
   -1.2095   -0.0273   -1.0627 C   0  0  0  0  0  0  0  0  0  0  0  0
   -2.3813   -0.3863   -0.5241 F   0  0  0  0  0  0  0  0  0  0  0  0
   -0.7409    1.2965   -1.0318 C   0  0  0  0  0  0  0  0  0  0  0  0
   -1.5100    2.4185   -0.6009 N   0  0  0  0  0  0  0  0  0  0  0  0
   -2.8966    2.4520   -0.5458 C   0  0  0  0  0  0  0  0  0  0  0  0
   -3.6352    1.5444   -0.8948 O   0  0  0  0  0  0  0  0  0  0  0  0
   -3.3939    3.6806   -0.1102 N   0  0  0  0  0  0  0  0  0  0  0  0
   -4.8001    3.7973    0.0628 C   0  0  0  0  0  0  0  0  0  0  0  0
   -5.4856    2.8741    0.8602 C   0  0  0  0  0  0  0  0  0  0  0  0
   -6.8783    2.8993    0.9396 C   0  0  0  0  0  0  0  0  0  0  0  0
   -7.6000    3.8904    0.2727 C   0  0  0  0  0  0  0  0  0  0  0  0
   -8.9752    3.9965    0.3085 O   0  0  0  0  0  0  0  0  0  0  0  0
   -9.6524    3.6257    1.4515 C   0  0  0  0  0  0  0  0  0  0  0  0
   -9.1626    3.8083    2.7403 C   0  0  0  0  0  0  0  0  0  0  0  0
   -9.9202    3.3409    3.7989 C   0  0  0  0  0  0  0  0  0  0  0  0
  -11.1330    2.7618    3.6624 N   0  0  0  0  0  0  0  0  0  0  0  0
  -11.6170    2.6534    2.4025 C   0  0  0  0  0  0  0  0  0  0  0  0
  -12.9379    2.0398    2.3113 C   0  0  0  0  0  0  0  0  0  0  0  0
  -13.7504    1.7826    1.2211 C   0  0  0  0  0  0  0  0  0  0  0  0
  -14.9608    1.1764    1.6701 C   0  0  0  0  0  0  0  0  0  0  0  0
  -16.1185    0.7426    0.8944 C   0  0  0  0  0  0  0  0  0  0  0  0
  -17.1197    0.2303    1.3926 O   0  0  0  0  0  0  0  0  0  0  0  0
  -16.0197    0.9529   -0.4607 N   0  0  0  0  0  0  0  0  0  0  0  0
  -17.1159    0.5733   -1.2658 O   0  0  0  0  0  0  0  0  0  0  0  0
  -14.8350    1.0688    3.0447 C   0  0  0  0  0  0  0  0  0  0  0  0
  -13.6196    1.5816    3.4170 N   0  0  0  0  0  0  0  0  0  0  0  0
  -10.9187    3.0778    1.2778 C   0  0  0  0  0  0  0  0  0  0  0  0
   -6.9188    4.8096   -0.5318 C   0  0  0  0  0  0  0  0  0  0  0  0
   -5.5181    4.7814   -0.6190 C   0  0  0  0  0  0  0  0  0  0  0  0
    0.5808    1.5271   -1.4555 C   0  0  0  0  0  0  0  0  0  0  0  0
    3.2676   -0.2028   -2.7497 H   0  0  0  0  0  0  0  0  0  0  0  0
    3.3936    1.1315   -1.5997 H   0  0  0  0  0  0  0  0  0  0  0  0
    2.7947    1.4217   -3.2606 H   0  0  0  0  0  0  0  0  0  0  0  0
    1.4515   -1.6447   -2.4021 H   0  0  0  0  0  0  0  0  0  0  0  0
   -0.8437   -2.0714   -1.5844 H   0  0  0  0  0  0  0  0  0  0  0  0
   -1.0221    3.2885   -0.4575 H   0  0  0  0  0  0  0  0  0  0  0  0
   -2.9327    4.4774   -0.5217 H   0  0  0  0  0  0  0  0  0  0  0  0
   -4.9410    2.1051    1.4038 H   0  0  0  0  0  0  0  0  0  0  0  0
   -7.3773    2.1292    1.5206 H   0  0  0  0  0  0  0  0  0  0  0  0
   -8.2028    4.2749    2.9266 H   0  0  0  0  0  0  0  0  0  0  0  0
   -9.5507    3.4150    4.8176 H   0  0  0  0  0  0  0  0  0  0  0  0
  -13.4890    2.0193    0.1993 H   0  0  0  0  0  0  0  0  0  0  0  0
  -15.2343    1.3859   -0.9263 H   0  0  0  0  0  0  0  0  0  0  0  0
  -17.7425    0.2122   -0.6019 H   0  0  0  0  0  0  0  0  0  0  0  0
  -15.5152    0.6669    3.7858 H   0  0  0  0  0  0  0  0  0  0  0  0
  -13.2507    1.6336    4.3595 H   0  0  0  0  0  0  0  0  0  0  0  0
  -11.3334    2.9769    0.2826 H   0  0  0  0  0  0  0  0  0  0  0  0
   -7.4809    5.5364   -1.1135 H   0  0  0  0  0  0  0  0  0  0  0  0
   -5.0172    5.4812   -1.2806 H   0  0  0  0  0  0  0  0  0  0  0  0
    0.9966    2.5317   -1.4304 H   0  0  0  0  0  0  0  0  0  0  0  0
  1  2  1  0  0  0  0
  1 35  1  0  0  0  0
  1 36  1  0  0  0  0
  1 37  1  0  0  0  0
  2  3  1  0  0  0  0
  2 34  2  0  0  0  0
  3  4  2  0  0  0  0
  3 38  1  0  0  0  0
  4  5  1  0  0  0  0
  4 39  1  0  0  0  0
  5  6  1  0  0  0  0
  5  7  2  0  0  0  0
  7  8  1  0  0  0  0
  7 34  1  0  0  0  0
  8  9  1  0  0  0  0
  8 40  1  0  0  0  0
  9 10  2  0  0  0  0
  9 11  1  0  0  0  0
 11 12  1  0  0  0  0
 11 41  1  0  0  0  0
 12 13  1  0  0  0  0
 12 33  2  0  0  0  0
 13 14  2  0  0  0  0
 13 42  1  0  0  0  0
 14 15  1  0  0  0  0
 14 43  1  0  0  0  0
 15 16  1  0  0  0  0
 15 32  2  0  0  0  0
 16 17  1  0  0  0  0
 17 18  1  0  0  0  0
 17 31  2  0  0  0  0
 18 19  2  0  0  0  0
 18 44  1  0  0  0  0
 19 20  1  0  0  0  0
 19 45  1  0  0  0  0
 20 21  2  0  0  0  0
 21 22  1  0  0  0  0
 21 31  1  0  0  0  0
 22 23  2  0  0  0  0
 22 30  1  0  0  0  0
 23 24  1  0  0  0  0
 23 46  1  0  0  0  0
 24 25  1  0  0  0  0
 24 29  2  0  0  0  0
 25 26  2  0  0  0  0
 25 27  1  0  0  0  0
 27 28  1  0  0  0  0
 27 47  1  0  0  0  0
 28 48  1  0  0  0  0
 29 30  1  0  0  0  0
 29 49  1  0  0  0  0
 30 50  1  0  0  0  0
 31 51  1  0  0  0  0
 32 33  1  0  0  0  0
 32 52  1  0  0  0  0
 33 53  1  0  0  0  0
 34 54  1  0  0  0  0
M  END
$$$$
