CHEMBL2011299
 OpenBabel04072215363D

 34 36  0  0  0  0  0  0  0  0999 V2000
    3.4531   -1.0867    0.3592 N   0  0  0  0  0  0  0  0  0  0  0  0
    2.6764   -0.1822   -0.3101 C   0  0  0  0  0  0  0  0  0  0  0  0
    1.4573   -0.2174   -0.1909 O   0  0  0  0  0  0  0  0  0  0  0  0
    3.3962    0.7935   -1.1098 C   0  0  0  0  0  0  0  0  0  0  0  0
    3.0085    2.1281   -1.4392 C   0  0  0  0  0  0  0  0  0  0  0  0
    1.8555    2.9155   -0.9758 C   0  0  0  0  0  0  0  0  0  0  0  0
    1.3017    2.7350    0.2941 C   0  0  0  0  0  0  0  0  0  0  0  0
    0.2027    3.4955    0.6611 C   0  0  0  0  0  0  0  0  0  0  0  0
   -0.3541    4.4389   -0.1243 N   0  0  0  0  0  0  0  0  0  0  0  0
    0.2178    4.6302   -1.3314 C   0  0  0  0  0  0  0  0  0  0  0  0
    1.3072    3.9087   -1.7939 C   0  0  0  0  0  0  0  0  0  0  0  0
    3.8930    2.6844   -2.2750 N   0  0  0  0  0  0  0  0  0  0  0  0
    4.8976    1.7937   -2.4352 N   0  0  0  0  0  0  0  0  0  0  0  0
    6.0115    2.1382   -3.2650 C   0  0  0  0  0  0  0  0  0  0  0  0
    6.5286    3.4560   -3.2472 C   0  0  0  0  0  0  0  0  0  0  0  0
    5.9920    4.7209   -2.1858 Cl  0  0  0  0  0  0  0  0  0  0  0  0
    7.6212    3.8115   -4.0544 C   0  0  0  0  0  0  0  0  0  0  0  0
    8.2277    2.8656   -4.8659 C   0  0  0  0  0  0  0  0  0  0  0  0
    9.5805    3.3008   -5.8329 Cl  0  0  0  0  0  0  0  0  0  0  0  0
    7.7335    1.5710   -4.9103 C   0  0  0  0  0  0  0  0  0  0  0  0
    6.6133    1.2131   -4.1431 C   0  0  0  0  0  0  0  0  0  0  0  0
    5.9746   -0.3541   -4.5192 Cl  0  0  0  0  0  0  0  0  0  0  0  0
    4.6354    0.6189   -1.7138 C   0  0  0  0  0  0  0  0  0  0  0  0
    5.4802   -0.4525   -1.6134 N   0  0  0  0  0  0  0  0  0  0  0  0
    2.9854   -1.6908    1.0197 H   0  0  0  0  0  0  0  0  0  0  0  0
    4.4466   -0.9182    0.4622 H   0  0  0  0  0  0  0  0  0  0  0  0
    1.6985    2.0188    1.0031 H   0  0  0  0  0  0  0  0  0  0  0  0
   -0.2715    3.3570    1.6287 H   0  0  0  0  0  0  0  0  0  0  0  0
   -0.2376    5.4055   -1.9404 H   0  0  0  0  0  0  0  0  0  0  0  0
    1.7202    4.1232   -2.7739 H   0  0  0  0  0  0  0  0  0  0  0  0
    8.0084    4.8287   -4.0331 H   0  0  0  0  0  0  0  0  0  0  0  0
    8.1993    0.8444   -5.5741 H   0  0  0  0  0  0  0  0  0  0  0  0
    6.2168   -0.5686   -2.3097 H   0  0  0  0  0  0  0  0  0  0  0  0
    5.0419   -1.3632   -1.4548 H   0  0  0  0  0  0  0  0  0  0  0  0
  1  2  1  0  0  0  0
  1 25  1  0  0  0  0
  1 26  1  0  0  0  0
  2  3  2  0  0  0  0
  2  4  1  0  0  0  0
  4  5  1  0  0  0  0
  4 23  2  0  0  0  0
  5  6  1  0  0  0  0
  5 12  2  0  0  0  0
  6  7  1  0  0  0  0
  6 11  2  0  0  0  0
  7  8  2  0  0  0  0
  7 27  1  0  0  0  0
  8  9  1  0  0  0  0
  8 28  1  0  0  0  0
  9 10  2  0  0  0  0
 10 11  1  0  0  0  0
 10 29  1  0  0  0  0
 11 30  1  0  0  0  0
 12 13  1  0  0  0  0
 13 14  1  0  0  0  0
 13 23  1  0  0  0  0
 14 15  1  0  0  0  0
 14 21  2  0  0  0  0
 15 16  1  0  0  0  0
 15 17  2  0  0  0  0
 17 18  1  0  0  0  0
 17 31  1  0  0  0  0
 18 19  1  0  0  0  0
 18 20  2  0  0  0  0
 20 21  1  0  0  0  0
 20 32  1  0  0  0  0
 21 22  1  0  0  0  0
 23 24  1  0  0  0  0
 24 33  1  0  0  0  0
 24 34  1  0  0  0  0
M  END
$$$$
