CHEMBL3984370
 OpenBabel04072215383D

 56 61  0  0  0  0  0  0  0  0999 V2000
    1.2713    0.1932   -0.2032 O   0  0  0  0  0  0  0  0  0  0  0  0
    2.5012    0.0812   -0.1634 C   0  0  0  0  0  0  0  0  0  0  0  0
    3.2118    0.8609    0.8693 C   0  0  0  0  0  0  0  0  0  0  0  0
    2.5832    0.9841    2.1092 C   0  0  0  0  0  0  0  0  0  0  0  0
    3.2378    1.6327    3.1452 C   0  0  0  0  0  0  0  0  0  0  0  0
    4.5262    2.1283    2.9459 C   0  0  0  0  0  0  0  0  0  0  0  0
    5.1631    2.0178    1.7129 C   0  0  0  0  0  0  0  0  0  0  0  0
    6.4858    2.4355    1.4742 N   0  0  0  0  0  0  0  0  0  0  0  0
    7.4358    2.7198    2.4472 C   0  0  0  0  0  0  0  0  0  0  0  0
    7.2879    2.6578    3.6525 O   0  0  0  0  0  0  0  0  0  0  0  0
    8.7793    3.0092    1.9330 C   0  0  0  0  0  0  0  0  0  0  0  0
    9.9236    2.5323    2.6206 C   0  0  0  0  0  0  0  0  0  0  0  0
   11.1961    2.6913    2.0926 C   0  0  0  0  0  0  0  0  0  0  0  0
   11.3872    3.2158    0.8194 C   0  0  0  0  0  0  0  0  0  0  0  0
   10.2629    3.7286    0.1611 C   0  0  0  0  0  0  0  0  0  0  0  0
   10.0834    4.2341   -1.1082 N   0  0  0  0  0  0  0  0  0  0  0  0
    8.9985    5.0663   -1.0922 C   0  0  0  0  0  0  0  0  0  0  0  0
    8.2158    4.6566   -0.0366 C   0  0  0  0  0  0  0  0  0  0  0  0
    8.9904    3.7518    0.7396 C   0  0  0  0  0  0  0  0  0  0  0  0
    4.4655    1.4335    0.6419 C   0  0  0  0  0  0  0  0  0  0  0  0
    3.1716   -0.8814   -1.0752 C   0  0  0  0  0  0  0  0  0  0  0  0
    4.5213   -1.2783   -1.0091 C   0  0  0  0  0  0  0  0  0  0  0  0
    5.0632   -2.1889   -1.9357 C   0  0  0  0  0  0  0  0  0  0  0  0
    4.1564   -2.9142   -2.7554 C   0  0  0  0  0  0  0  0  0  0  0  0
    4.1362   -3.8146   -3.8498 C   0  0  0  0  0  0  0  0  0  0  0  0
    4.8948   -3.9048   -5.0785 C   0  0  0  0  0  0  0  0  0  0  0  0
    5.4024   -2.8471   -5.6194 N   0  0  0  0  0  0  0  0  0  0  0  0
    5.8755   -3.0261   -6.8821 N   0  0  0  0  0  0  0  0  0  0  0  0
    6.1667   -1.9823   -7.7311 C   0  0  0  0  0  0  0  0  0  0  0  0
    6.7874   -2.4840   -8.8551 C   0  0  0  0  0  0  0  0  0  0  0  0
    6.6656   -3.8865   -8.7987 C   0  0  0  0  0  0  0  0  0  0  0  0
    6.1851   -4.1923   -7.5469 C   0  0  0  0  0  0  0  0  0  0  0  0
    2.9788   -4.4925   -3.8711 N   0  0  0  0  0  0  0  0  0  0  0  0
    2.1550   -3.6386   -3.2627 N   0  0  0  0  0  0  0  0  0  0  0  0
    2.8150   -2.6231   -2.6308 C   0  0  0  0  0  0  0  0  0  0  0  0
    2.3058   -1.5236   -1.9681 C   0  0  0  0  0  0  0  0  0  0  0  0
    1.5906    0.5720    2.2703 H   0  0  0  0  0  0  0  0  0  0  0  0
    2.7575    1.7377    4.1140 H   0  0  0  0  0  0  0  0  0  0  0  0
    5.0187    2.6080    3.7879 H   0  0  0  0  0  0  0  0  0  0  0  0
    6.8226    2.3689    0.5160 H   0  0  0  0  0  0  0  0  0  0  0  0
    9.7905    2.0336    3.5884 H   0  0  0  0  0  0  0  0  0  0  0  0
   12.0605    2.3748    2.6721 H   0  0  0  0  0  0  0  0  0  0  0  0
   12.3812    3.2961    0.3758 H   0  0  0  0  0  0  0  0  0  0  0  0
   10.6728    4.0389   -1.9045 H   0  0  0  0  0  0  0  0  0  0  0  0
    8.8478    5.8111   -1.8607 H   0  0  0  0  0  0  0  0  0  0  0  0
    7.2302    5.0352    0.2030 H   0  0  0  0  0  0  0  0  0  0  0  0
    4.9163    1.3874   -0.3434 H   0  0  0  0  0  0  0  0  0  0  0  0
    5.1801   -0.9052   -0.2328 H   0  0  0  0  0  0  0  0  0  0  0  0
    6.1250   -2.4369   -1.9199 H   0  0  0  0  0  0  0  0  0  0  0  0
    4.7922   -4.8833   -5.5797 H   0  0  0  0  0  0  0  0  0  0  0  0
    5.9385   -0.9658   -7.4416 H   0  0  0  0  0  0  0  0  0  0  0  0
    7.2408   -1.9034   -9.6473 H   0  0  0  0  0  0  0  0  0  0  0  0
    6.9600   -4.6091   -9.5477 H   0  0  0  0  0  0  0  0  0  0  0  0
    6.0763   -5.1603   -7.0845 H   0  0  0  0  0  0  0  0  0  0  0  0
    1.1600   -3.8170   -3.2892 H   0  0  0  0  0  0  0  0  0  0  0  0
    1.2586   -1.2496   -2.0531 H   0  0  0  0  0  0  0  0  0  0  0  0
  1  2  2  0  0  0  0
  2  3  1  0  0  0  0
  2 21  1  0  0  0  0
  3  4  1  0  0  0  0
  3 20  2  0  0  0  0
  4  5  2  0  0  0  0
  4 37  1  0  0  0  0
  5  6  1  0  0  0  0
  5 38  1  0  0  0  0
  6  7  2  0  0  0  0
  6 39  1  0  0  0  0
  7  8  1  0  0  0  0
  7 20  1  0  0  0  0
  8  9  1  0  0  0  0
  8 40  1  0  0  0  0
  9 10  2  0  0  0  0
  9 11  1  0  0  0  0
 11 12  1  0  0  0  0
 11 19  2  0  0  0  0
 12 13  2  0  0  0  0
 12 41  1  0  0  0  0
 13 14  1  0  0  0  0
 13 42  1  0  0  0  0
 14 15  2  0  0  0  0
 14 43  1  0  0  0  0
 15 16  1  0  0  0  0
 15 19  1  0  0  0  0
 16 17  1  0  0  0  0
 16 44  1  0  0  0  0
 17 18  2  0  0  0  0
 17 45  1  0  0  0  0
 18 19  1  0  0  0  0
 18 46  1  0  0  0  0
 20 47  1  0  0  0  0
 21 22  1  0  0  0  0
 21 36  2  0  0  0  0
 22 23  2  0  0  0  0
 22 48  1  0  0  0  0
 23 24  1  0  0  0  0
 23 49  1  0  0  0  0
 24 25  1  0  0  0  0
 24 35  2  0  0  0  0
 25 26  1  0  0  0  0
 25 33  2  0  0  0  0
 26 27  2  0  0  0  0
 26 50  1  0  0  0  0
 27 28  1  0  0  0  0
 28 29  1  0  0  0  0
 28 32  1  0  0  0  0
 29 30  2  0  0  0  0
 29 51  1  0  0  0  0
 30 31  1  0  0  0  0
 30 52  1  0  0  0  0
 31 32  2  0  0  0  0
 31 53  1  0  0  0  0
 32 54  1  0  0  0  0
 33 34  1  0  0  0  0
 34 35  1  0  0  0  0
 34 55  1  0  0  0  0
 35 36  1  0  0  0  0
 36 56  1  0  0  0  0
M  END
$$$$
