CHEMBL3754450
 OpenBabel04072215373D

 59 63  0  0  0  0  0  0  0  0999 V2000
    5.7746    8.8300    1.2814 C   0  0  0  0  0  0  0  0  0  0  0  0
    5.7188    7.8025    2.2560 O   0  0  0  0  0  0  0  0  0  0  0  0
    5.9116    6.5178    1.8185 C   0  0  0  0  0  0  0  0  0  0  0  0
    6.0783    6.1369    0.4816 C   0  0  0  0  0  0  0  0  0  0  0  0
    6.2813    4.7944    0.1555 C   0  0  0  0  0  0  0  0  0  0  0  0
    6.3363    3.8305    1.1606 C   0  0  0  0  0  0  0  0  0  0  0  0
    6.1723    4.2121    2.4953 C   0  0  0  0  0  0  0  0  0  0  0  0
    6.2548    3.2362    3.6081 C   0  0  0  0  0  0  0  0  0  0  0  0
    5.6368    3.4444    4.6510 O   0  0  0  0  0  0  0  0  0  0  0  0
    7.1388    2.0072    3.4468 C   0  0  0  0  0  0  0  0  0  0  0  0
    8.5400    2.3890    3.1767 N   0  0  0  0  0  0  0  0  0  0  0  0
    9.3483    1.1866    2.8877 C   0  0  0  0  0  0  0  0  0  0  0  0
    9.5641    0.2532    4.1078 C   0  0  0  0  0  0  0  0  0  0  0  0
   10.2452    1.0059    5.1662 N   0  0  0  0  0  0  0  0  0  0  0  0
   11.0485    0.4469    6.1672 C   0  0  0  0  0  0  0  0  0  0  0  0
   10.8624    0.9073    7.4269 N   0  0  0  0  0  0  0  0  0  0  0  0
   11.7823    0.7064    8.4384 N   0  0  0  0  0  0  0  0  0  0  0  0
   12.9458    0.0720    8.1981 C   0  0  0  0  0  0  0  0  0  0  0  0
   13.8772    0.0614    9.3660 C   0  0  0  0  0  0  0  0  0  0  0  0
   13.4003   -0.1409   10.6722 C   0  0  0  0  0  0  0  0  0  0  0  0
   14.2670   -0.1908   11.7738 C   0  0  0  0  0  0  0  0  0  0  0  0
   15.6394   -0.0585   11.5913 C   0  0  0  0  0  0  0  0  0  0  0  0
   16.1403    0.1751   10.3170 C   0  0  0  0  0  0  0  0  0  0  0  0
   15.2651    0.2762    9.2295 C   0  0  0  0  0  0  0  0  0  0  0  0
   13.1845   -0.5072    6.9290 C   0  0  0  0  0  0  0  0  0  0  0  0
   14.3845   -1.2069    6.6089 C   0  0  0  0  0  0  0  0  0  0  0  0
   14.6528   -1.7273    5.3471 C   0  0  0  0  0  0  0  0  0  0  0  0
   13.6690   -1.6849    4.3930 C   0  0  0  0  0  0  0  0  0  0  0  0
   12.4677   -1.0453    4.6857 C   0  0  0  0  0  0  0  0  0  0  0  0
   12.1915   -0.3734    5.9108 C   0  0  0  0  0  0  0  0  0  0  0  0
    9.4657    2.2065    5.5736 C   0  0  0  0  0  0  0  0  0  0  0  0
    9.1696    3.0886    4.3299 C   0  0  0  0  0  0  0  0  0  0  0  0
    5.9505    5.5496    2.8113 C   0  0  0  0  0  0  0  0  0  0  0  0
    5.6642    9.7852    1.8011 H   0  0  0  0  0  0  0  0  0  0  0  0
    4.9395    8.7405    0.5742 H   0  0  0  0  0  0  0  0  0  0  0  0
    6.7387    8.8442    0.7614 H   0  0  0  0  0  0  0  0  0  0  0  0
    6.0568    6.8572   -0.3296 H   0  0  0  0  0  0  0  0  0  0  0  0
    6.4064    4.5013   -0.8837 H   0  0  0  0  0  0  0  0  0  0  0  0
    6.5079    2.7953    0.8807 H   0  0  0  0  0  0  0  0  0  0  0  0
    6.7336    1.4066    2.6248 H   0  0  0  0  0  0  0  0  0  0  0  0
    7.0366    1.3986    4.3507 H   0  0  0  0  0  0  0  0  0  0  0  0
   10.3280    1.5193    2.5133 H   0  0  0  0  0  0  0  0  0  0  0  0
    8.8973    0.6242    2.0584 H   0  0  0  0  0  0  0  0  0  0  0  0
   10.0857   -0.6128    3.7306 H   0  0  0  0  0  0  0  0  0  0  0  0
    8.6124   -0.1418    4.4771 H   0  0  0  0  0  0  0  0  0  0  0  0
   12.3318   -0.2589   10.8491 H   0  0  0  0  0  0  0  0  0  0  0  0
   13.8659   -0.3361   12.7739 H   0  0  0  0  0  0  0  0  0  0  0  0
   16.3153   -0.1187   12.4407 H   0  0  0  0  0  0  0  0  0  0  0  0
   17.2106    0.2885   10.1638 H   0  0  0  0  0  0  0  0  0  0  0  0
   15.6949    0.5262    8.2618 H   0  0  0  0  0  0  0  0  0  0  0  0
   15.1611   -1.3622    7.3505 H   0  0  0  0  0  0  0  0  0  0  0  0
   15.6128   -2.1834    5.1277 H   0  0  0  0  0  0  0  0  0  0  0  0
   13.8144   -2.1428    3.4188 H   0  0  0  0  0  0  0  0  0  0  0  0
   11.7472   -1.1206    3.8940 H   0  0  0  0  0  0  0  0  0  0  0  0
   10.0177    2.8376    6.2809 H   0  0  0  0  0  0  0  0  0  0  0  0
    8.5273    1.9027    6.0555 H   0  0  0  0  0  0  0  0  0  0  0  0
   10.1260    3.4985    3.9747 H   0  0  0  0  0  0  0  0  0  0  0  0
    8.5794    3.9637    4.6254 H   0  0  0  0  0  0  0  0  0  0  0  0
    5.8224    5.8539    3.8546 H   0  0  0  0  0  0  0  0  0  0  0  0
  1  2  1  0  0  0  0
  1 34  1  0  0  0  0
  1 35  1  0  0  0  0
  1 36  1  0  0  0  0
  2  3  1  0  0  0  0
  3  4  1  0  0  0  0
  3 33  2  0  0  0  0
  4  5  2  0  0  0  0
  4 37  1  0  0  0  0
  5  6  1  0  0  0  0
  5 38  1  0  0  0  0
  6  7  2  0  0  0  0
  6 39  1  0  0  0  0
  7  8  1  0  0  0  0
  7 33  1  0  0  0  0
  8  9  2  0  0  0  0
  8 10  1  0  0  0  0
 10 11  1  0  0  0  0
 10 40  1  0  0  0  0
 10 41  1  0  0  0  0
 11 12  1  0  0  0  0
 11 32  1  0  0  0  0
 12 13  1  0  0  0  0
 12 42  1  0  0  0  0
 12 43  1  0  0  0  0
 13 14  1  0  0  0  0
 13 44  1  0  0  0  0
 13 45  1  0  0  0  0
 14 15  1  0  0  0  0
 14 31  1  0  0  0  0
 15 16  1  0  0  0  0
 15 30  2  0  0  0  0
 16 17  2  0  0  0  0
 17 18  1  0  0  0  0
 18 19  1  0  0  0  0
 18 25  2  0  0  0  0
 19 20  1  0  0  0  0
 19 24  2  0  0  0  0
 20 21  2  0  0  0  0
 20 46  1  0  0  0  0
 21 22  1  0  0  0  0
 21 47  1  0  0  0  0
 22 23  2  0  0  0  0
 22 48  1  0  0  0  0
 23 24  1  0  0  0  0
 23 49  1  0  0  0  0
 24 50  1  0  0  0  0
 25 26  1  0  0  0  0
 25 30  1  0  0  0  0
 26 27  2  0  0  0  0
 26 51  1  0  0  0  0
 27 28  1  0  0  0  0
 27 52  1  0  0  0  0
 28 29  2  0  0  0  0
 28 53  1  0  0  0  0
 29 30  1  0  0  0  0
 29 54  1  0  0  0  0
 31 32  1  0  0  0  0
 31 55  1  0  0  0  0
 31 56  1  0  0  0  0
 32 57  1  0  0  0  0
 32 58  1  0  0  0  0
 33 59  1  0  0  0  0
M  END
$$$$
