CHEMBL4550702
 OpenBabel04072215383D

 41 44  0  0  0  0  0  0  0  0999 V2000
   -1.3573    1.0346    1.3820 C   0  0  0  0  0  0  0  0  0  0  0  0
   -0.3243    0.3941    0.6049 N   0  0  0  0  0  0  0  0  0  0  0  0
    0.7933   -0.2372    1.0739 C   0  0  0  0  0  0  0  0  0  0  0  0
    1.4518   -0.7224   -0.0364 C   0  0  0  0  0  0  0  0  0  0  0  0
    2.6663   -1.4646   -0.0554 C   0  0  0  0  0  0  0  0  0  0  0  0
    2.9717   -2.4110   -1.1844 C   0  0  0  0  0  0  0  0  0  0  0  0
    4.0532   -3.1153   -1.3470 N   0  0  0  0  0  0  0  0  0  0  0  0
    5.0116   -2.9766   -0.3788 C   0  0  0  0  0  0  0  0  0  0  0  0
    6.2754   -3.5112   -0.2215 C   0  0  0  0  0  0  0  0  0  0  0  0
    7.0334   -4.4269   -1.0841 C   0  0  0  0  0  0  0  0  0  0  0  0
    8.2918   -4.9126   -0.7979 C   0  0  0  0  0  0  0  0  0  0  0  0
    8.8858   -5.9556   -2.0085 S   0  0  0  0  0  0  0  0  0  0  0  0
    7.4636   -5.7856   -2.9538 C   0  0  0  0  0  0  0  0  0  0  0  0
    7.3064   -6.4874   -4.2238 C   0  0  0  0  0  0  0  0  0  0  0  0
    6.3423   -6.3384   -4.9709 O   0  0  0  0  0  0  0  0  0  0  0  0
    8.3231   -7.3654   -4.5455 N   0  0  0  0  0  0  0  0  0  0  0  0
    8.3639   -8.0765   -5.8201 C   0  0  0  0  0  0  0  0  0  0  0  0
    8.9620   -7.3016   -7.0018 C   0  0  0  0  0  0  0  0  0  0  0  0
    9.3488   -6.0530   -6.6578 F   0  0  0  0  0  0  0  0  0  0  0  0
   10.0648   -7.9417   -7.4658 F   0  0  0  0  0  0  0  0  0  0  0  0
    8.0935   -7.2035   -8.0303 F   0  0  0  0  0  0  0  0  0  0  0  0
    6.5618   -4.9305   -2.3389 C   0  0  0  0  0  0  0  0  0  0  0  0
    6.7367   -2.9830    1.0006 C   0  0  0  0  0  0  0  0  0  0  0  0
    5.8582   -2.1697    1.5862 N   0  0  0  0  0  0  0  0  0  0  0  0
    4.8044   -2.1511    0.7347 N   0  0  0  0  0  0  0  0  0  0  0  0
    3.6364   -1.4113    0.8723 C   0  0  0  0  0  0  0  0  0  0  0  0
    0.6543   -0.3072   -1.1246 C   0  0  0  0  0  0  0  0  0  0  0  0
   -0.4281    0.3697   -0.7354 N   0  0  0  0  0  0  0  0  0  0  0  0
   -1.0871    1.0079    2.4404 H   0  0  0  0  0  0  0  0  0  0  0  0
   -2.2923    0.4924    1.2204 H   0  0  0  0  0  0  0  0  0  0  0  0
   -1.4513    2.0707    1.0467 H   0  0  0  0  0  0  0  0  0  0  0  0
    1.0055   -0.2958    2.1329 H   0  0  0  0  0  0  0  0  0  0  0  0
    2.1777   -2.5219   -1.9414 H   0  0  0  0  0  0  0  0  0  0  0  0
    8.9081   -4.7137    0.0671 H   0  0  0  0  0  0  0  0  0  0  0  0
    9.1522   -7.3469   -3.9634 H   0  0  0  0  0  0  0  0  0  0  0  0
    7.3478   -8.3992   -6.0713 H   0  0  0  0  0  0  0  0  0  0  0  0
    8.9567   -8.9799   -5.6408 H   0  0  0  0  0  0  0  0  0  0  0  0
    5.6005   -4.6902   -2.7820 H   0  0  0  0  0  0  0  0  0  0  0  0
    7.6827   -3.1521    1.4981 H   0  0  0  0  0  0  0  0  0  0  0  0
    3.5908   -0.7867    1.7547 H   0  0  0  0  0  0  0  0  0  0  0  0
    0.8126   -0.4588   -2.1850 H   0  0  0  0  0  0  0  0  0  0  0  0
  1  2  1  0  0  0  0
  1 29  1  0  0  0  0
  1 30  1  0  0  0  0
  1 31  1  0  0  0  0
  2  3  1  0  0  0  0
  2 28  1  0  0  0  0
  3  4  2  0  0  0  0
  3 32  1  0  0  0  0
  4  5  1  0  0  0  0
  4 27  1  0  0  0  0
  5  6  1  0  0  0  0
  5 26  2  0  0  0  0
  6  7  2  0  0  0  0
  6 33  1  0  0  0  0
  7  8  1  0  0  0  0
  8  9  2  0  0  0  0
  8 25  1  0  0  0  0
  9 10  1  0  0  0  0
  9 23  1  0  0  0  0
 10 11  2  0  0  0  0
 10 22  1  0  0  0  0
 11 12  1  0  0  0  0
 11 34  1  0  0  0  0
 12 13  1  0  0  0  0
 13 14  1  0  0  0  0
 13 22  2  0  0  0  0
 14 15  2  0  0  0  0
 14 16  1  0  0  0  0
 16 17  1  0  0  0  0
 16 35  1  0  0  0  0
 17 18  1  0  0  0  0
 17 36  1  0  0  0  0
 17 37  1  0  0  0  0
 18 19  1  0  0  0  0
 18 20  1  0  0  0  0
 18 21  1  0  0  0  0
 22 38  1  0  0  0  0
 23 24  2  0  0  0  0
 23 39  1  0  0  0  0
 24 25  1  0  0  0  0
 25 26  1  0  0  0  0
 26 40  1  0  0  0  0
 27 28  2  0  0  0  0
 27 41  1  0  0  0  0
M  END
$$$$
