CHEMBL4570075
 OpenBabel04072215383D

 43 46  0  0  0  0  0  0  0  0999 V2000
    2.3578   -4.4296    3.2743 C   0  0  0  0  0  0  0  0  0  0  0  0
    1.1689   -3.5271    3.1324 C   0  0  0  0  0  0  0  0  0  0  0  0
    0.9816   -2.4403    3.9936 C   0  0  0  0  0  0  0  0  0  0  0  0
   -0.1174   -1.5964    3.8344 C   0  0  0  0  0  0  0  0  0  0  0  0
   -1.0388   -1.8318    2.8120 C   0  0  0  0  0  0  0  0  0  0  0  0
   -0.8788   -2.9203    1.9452 C   0  0  0  0  0  0  0  0  0  0  0  0
   -1.8600   -3.1617    0.9059 C   0  0  0  0  0  0  0  0  0  0  0  0
   -2.2133   -4.3838    0.3766 C   0  0  0  0  0  0  0  0  0  0  0  0
   -3.2164   -4.0848   -0.5003 N   0  0  0  0  0  0  0  0  0  0  0  0
   -4.0871   -5.0116   -1.1988 C   0  0  0  0  0  0  0  0  0  0  0  0
   -3.5533   -5.3861   -2.5572 C   0  0  0  0  0  0  0  0  0  0  0  0
   -2.6978   -6.4812   -2.7143 C   0  0  0  0  0  0  0  0  0  0  0  0
   -2.2120   -6.8261   -3.9812 C   0  0  0  0  0  0  0  0  0  0  0  0
   -2.5668   -6.1028   -5.1344 C   0  0  0  0  0  0  0  0  0  0  0  0
   -2.0441   -6.4792   -6.4666 C   0  0  0  0  0  0  0  0  0  0  0  0
   -1.7952   -7.8140   -6.8234 C   0  0  0  0  0  0  0  0  0  0  0  0
   -1.2675   -8.1353   -8.0743 C   0  0  0  0  0  0  0  0  0  0  0  0
   -1.0106   -7.1072   -8.9614 C   0  0  0  0  0  0  0  0  0  0  0  0
   -1.2434   -5.8103   -8.6820 N   0  0  0  0  0  0  0  0  0  0  0  0
   -1.7454   -5.5325   -7.4510 C   0  0  0  0  0  0  0  0  0  0  0  0
   -3.4269   -5.0052   -4.9571 C   0  0  0  0  0  0  0  0  0  0  0  0
   -3.9051   -4.6451   -3.6901 C   0  0  0  0  0  0  0  0  0  0  0  0
   -3.4661   -2.7624   -0.5254 N   0  0  0  0  0  0  0  0  0  0  0  0
   -2.6394   -2.1857    0.3385 N   0  0  0  0  0  0  0  0  0  0  0  0
    0.2327   -3.7601    2.1123 C   0  0  0  0  0  0  0  0  0  0  0  0
    2.9742   -4.1517    4.1357 H   0  0  0  0  0  0  0  0  0  0  0  0
    2.9833   -4.3688    2.3774 H   0  0  0  0  0  0  0  0  0  0  0  0
    2.0313   -5.4649    3.4158 H   0  0  0  0  0  0  0  0  0  0  0  0
    1.6929   -2.2398    4.7919 H   0  0  0  0  0  0  0  0  0  0  0  0
   -0.2575   -0.7533    4.5060 H   0  0  0  0  0  0  0  0  0  0  0  0
   -1.8915   -1.1635    2.7021 H   0  0  0  0  0  0  0  0  0  0  0  0
   -1.8859   -5.3936    0.5692 H   0  0  0  0  0  0  0  0  0  0  0  0
   -5.0802   -4.5532   -1.2785 H   0  0  0  0  0  0  0  0  0  0  0  0
   -4.1990   -5.9018   -0.5682 H   0  0  0  0  0  0  0  0  0  0  0  0
   -2.3970   -7.0787   -1.8576 H   0  0  0  0  0  0  0  0  0  0  0  0
   -1.5312   -7.6728   -4.0508 H   0  0  0  0  0  0  0  0  0  0  0  0
   -2.0148   -8.6242   -6.1327 H   0  0  0  0  0  0  0  0  0  0  0  0
   -1.0632   -9.1648   -8.3459 H   0  0  0  0  0  0  0  0  0  0  0  0
   -0.5986   -7.3049   -9.9466 H   0  0  0  0  0  0  0  0  0  0  0  0
   -1.8895   -4.4694   -7.2742 H   0  0  0  0  0  0  0  0  0  0  0  0
   -3.7509   -4.4095   -5.8091 H   0  0  0  0  0  0  0  0  0  0  0  0
   -4.5580   -3.7780   -3.5994 H   0  0  0  0  0  0  0  0  0  0  0  0
    0.3889   -4.5989    1.4378 H   0  0  0  0  0  0  0  0  0  0  0  0
  1  2  1  0  0  0  0
  1 26  1  0  0  0  0
  1 27  1  0  0  0  0
  1 28  1  0  0  0  0
  2  3  1  0  0  0  0
  2 25  2  0  0  0  0
  3  4  2  0  0  0  0
  3 29  1  0  0  0  0
  4  5  1  0  0  0  0
  4 30  1  0  0  0  0
  5  6  2  0  0  0  0
  5 31  1  0  0  0  0
  6  7  1  0  0  0  0
  6 25  1  0  0  0  0
  7  8  2  0  0  0  0
  7 24  1  0  0  0  0
  8  9  1  0  0  0  0
  8 32  1  0  0  0  0
  9 10  1  0  0  0  0
  9 23  1  0  0  0  0
 10 11  1  0  0  0  0
 10 33  1  0  0  0  0
 10 34  1  0  0  0  0
 11 12  1  0  0  0  0
 11 22  2  0  0  0  0
 12 13  2  0  0  0  0
 12 35  1  0  0  0  0
 13 14  1  0  0  0  0
 13 36  1  0  0  0  0
 14 15  1  0  0  0  0
 14 21  2  0  0  0  0
 15 16  1  0  0  0  0
 15 20  2  0  0  0  0
 16 17  2  0  0  0  0
 16 37  1  0  0  0  0
 17 18  1  0  0  0  0
 17 38  1  0  0  0  0
 18 19  2  0  0  0  0
 18 39  1  0  0  0  0
 19 20  1  0  0  0  0
 20 40  1  0  0  0  0
 21 22  1  0  0  0  0
 21 41  1  0  0  0  0
 22 42  1  0  0  0  0
 23 24  2  0  0  0  0
 25 43  1  0  0  0  0
M  END
$$$$
