CHEMBL3898355
 OpenBabel04072215373D

 53 56  0  0  0  0  0  0  0  0999 V2000
    0.8556   -1.6045   -4.0380 C   0  0  0  0  0  0  0  0  0  0  0  0
    1.9002   -2.4306   -3.5216 O   0  0  0  0  0  0  0  0  0  0  0  0
    2.8764   -1.8066   -2.7829 C   0  0  0  0  0  0  0  0  0  0  0  0
    2.7175   -0.5676   -2.1611 C   0  0  0  0  0  0  0  0  0  0  0  0
    3.7486   -0.0460   -1.3844 C   0  0  0  0  0  0  0  0  0  0  0  0
    3.7136    1.1413   -0.7018 O   0  0  0  0  0  0  0  0  0  0  0  0
    2.5654    1.9607   -0.8848 C   0  0  0  0  0  0  0  0  0  0  0  0
    4.9358   -0.7732   -1.2228 C   0  0  0  0  0  0  0  0  0  0  0  0
    5.1283   -2.0332   -1.8089 C   0  0  0  0  0  0  0  0  0  0  0  0
    6.2378   -2.8612   -1.5006 N   0  0  0  0  0  0  0  0  0  0  0  0
    6.8080   -2.7308   -0.1050 C   0  0  0  0  0  0  0  0  0  0  0  0
    5.8519   -2.9166    1.0855 C   0  0  0  0  0  0  0  0  0  0  0  0
    5.3632   -4.3311    1.3790 C   0  0  0  0  0  0  0  0  0  0  0  0
    6.4446   -5.2088    1.6648 O   0  0  0  0  0  0  0  0  0  0  0  0
    7.3390   -3.2360   -2.3661 C   0  0  0  0  0  0  0  0  0  0  0  0
    7.8670   -4.4935   -2.0945 C   0  0  0  0  0  0  0  0  0  0  0  0
    9.1880   -4.7587   -2.3808 C   0  0  0  0  0  0  0  0  0  0  0  0
    9.9720   -3.8809   -3.0777 C   0  0  0  0  0  0  0  0  0  0  0  0
   11.2673   -4.2199   -3.0914 N   0  0  0  0  0  0  0  0  0  0  0  0
   12.0497   -3.4969   -3.8954 C   0  0  0  0  0  0  0  0  0  0  0  0
   11.5395   -2.5268   -4.7351 C   0  0  0  0  0  0  0  0  0  0  0  0
   12.4073   -2.1461   -5.8465 C   0  0  0  0  0  0  0  0  0  0  0  0
   12.4290   -2.6793   -7.1647 C   0  0  0  0  0  0  0  0  0  0  0  0
   13.5476   -2.3796   -7.8361 N   0  0  0  0  0  0  0  0  0  0  0  0
   14.2741   -1.6911   -6.9426 N   0  0  0  0  0  0  0  0  0  0  0  0
   13.6797   -1.6126   -5.7127 C   0  0  0  0  0  0  0  0  0  0  0  0
   10.2366   -2.0927   -4.6227 N   0  0  0  0  0  0  0  0  0  0  0  0
    9.4142   -2.7497   -3.7045 C   0  0  0  0  0  0  0  0  0  0  0  0
    8.0721   -2.4111   -3.2680 C   0  0  0  0  0  0  0  0  0  0  0  0
    4.0755   -2.5280   -2.6049 C   0  0  0  0  0  0  0  0  0  0  0  0
    0.1696   -2.2387   -4.6097 H   0  0  0  0  0  0  0  0  0  0  0  0
    1.2629   -0.8493   -4.7186 H   0  0  0  0  0  0  0  0  0  0  0  0
    0.2641   -1.1357   -3.2436 H   0  0  0  0  0  0  0  0  0  0  0  0
    1.7865   -0.0255   -2.2543 H   0  0  0  0  0  0  0  0  0  0  0  0
    2.7293    2.8927   -0.3362 H   0  0  0  0  0  0  0  0  0  0  0  0
    1.6710    1.4830   -0.4711 H   0  0  0  0  0  0  0  0  0  0  0  0
    2.4250    2.2172   -1.9402 H   0  0  0  0  0  0  0  0  0  0  0  0
    5.7023   -0.3395   -0.5878 H   0  0  0  0  0  0  0  0  0  0  0  0
    7.2996   -1.7539   -0.0206 H   0  0  0  0  0  0  0  0  0  0  0  0
    7.6153   -3.4550    0.0624 H   0  0  0  0  0  0  0  0  0  0  0  0
    4.9916   -2.2472    1.0284 H   0  0  0  0  0  0  0  0  0  0  0  0
    6.4291   -2.6056    1.9687 H   0  0  0  0  0  0  0  0  0  0  0  0
    4.7505   -4.7473    0.5751 H   0  0  0  0  0  0  0  0  0  0  0  0
    4.7433   -4.3034    2.2842 H   0  0  0  0  0  0  0  0  0  0  0  0
    6.7856   -5.5425    0.8194 H   0  0  0  0  0  0  0  0  0  0  0  0
    7.3147   -5.2116   -1.5002 H   0  0  0  0  0  0  0  0  0  0  0  0
    9.6321   -5.6871   -2.0055 H   0  0  0  0  0  0  0  0  0  0  0  0
   13.0941   -3.7854   -3.9039 H   0  0  0  0  0  0  0  0  0  0  0  0
   11.7054   -3.3302   -7.6409 H   0  0  0  0  0  0  0  0  0  0  0  0
   15.2012   -1.3749   -7.2156 H   0  0  0  0  0  0  0  0  0  0  0  0
   14.2284   -1.2243   -4.8663 H   0  0  0  0  0  0  0  0  0  0  0  0
    7.6595   -1.4568   -3.5907 H   0  0  0  0  0  0  0  0  0  0  0  0
    4.1553   -3.5192   -3.0468 H   0  0  0  0  0  0  0  0  0  0  0  0
  1  2  1  0  0  0  0
  1 31  1  0  0  0  0
  1 32  1  0  0  0  0
  1 33  1  0  0  0  0
  2  3  1  0  0  0  0
  3  4  1  0  0  0  0
  3 30  2  0  0  0  0
  4  5  2  0  0  0  0
  4 34  1  0  0  0  0
  5  6  1  0  0  0  0
  5  8  1  0  0  0  0
  6  7  1  0  0  0  0
  7 35  1  0  0  0  0
  7 36  1  0  0  0  0
  7 37  1  0  0  0  0
  8  9  2  0  0  0  0
  8 38  1  0  0  0  0
  9 10  1  0  0  0  0
  9 30  1  0  0  0  0
 10 11  1  0  0  0  0
 10 15  1  0  0  0  0
 11 12  1  0  0  0  0
 11 39  1  0  0  0  0
 11 40  1  0  0  0  0
 12 13  1  0  0  0  0
 12 41  1  0  0  0  0
 12 42  1  0  0  0  0
 13 14  1  0  0  0  0
 13 43  1  0  0  0  0
 13 44  1  0  0  0  0
 14 45  1  0  0  0  0
 15 16  1  0  0  0  0
 15 29  2  0  0  0  0
 16 17  2  0  0  0  0
 16 46  1  0  0  0  0
 17 18  1  0  0  0  0
 17 47  1  0  0  0  0
 18 19  1  0  0  0  0
 18 28  2  0  0  0  0
 19 20  2  0  0  0  0
 20 21  1  0  0  0  0
 20 48  1  0  0  0  0
 21 22  1  0  0  0  0
 21 27  2  0  0  0  0
 22 23  1  0  0  0  0
 22 26  2  0  0  0  0
 23 24  2  0  0  0  0
 23 49  1  0  0  0  0
 24 25  1  0  0  0  0
 25 26  1  0  0  0  0
 25 50  1  0  0  0  0
 26 51  1  0  0  0  0
 27 28  1  0  0  0  0
 28 29  1  0  0  0  0
 29 52  1  0  0  0  0
 30 53  1  0  0  0  0
M  END
$$$$
