CHEMBL3702656
 OpenBabel04072215373D

 50 53  0  0  0  0  0  0  0  0999 V2000
    1.0628    0.0764   -0.0442 O   0  0  0  0  0  0  0  0  0  0  0  0
    2.2809   -0.0889   -0.0356 C   0  0  0  0  0  0  0  0  0  0  0  0
    2.9605   -1.1180    0.5983 N   0  0  0  0  0  0  0  0  0  0  0  0
    2.3367   -2.1645    1.3256 C   0  0  0  0  0  0  0  0  0  0  0  0
    0.9722   -2.4530    1.2062 C   0  0  0  0  0  0  0  0  0  0  0  0
    0.3737   -3.4669    1.9529 C   0  0  0  0  0  0  0  0  0  0  0  0
    1.1398   -4.2287    2.8244 C   0  0  0  0  0  0  0  0  0  0  0  0
    2.5146   -3.9868    2.9514 C   0  0  0  0  0  0  0  0  0  0  0  0
    3.3452   -4.8406    3.8785 C   0  0  0  0  0  0  0  0  0  0  0  0
    2.6307   -5.8188    4.5049 F   0  0  0  0  0  0  0  0  0  0  0  0
    4.3550   -5.4806    3.2264 F   0  0  0  0  0  0  0  0  0  0  0  0
    3.9373   -4.1206    4.8706 F   0  0  0  0  0  0  0  0  0  0  0  0
    3.1069   -2.9477    2.1977 C   0  0  0  0  0  0  0  0  0  0  0  0
    3.0886    0.9625   -0.7060 C   0  0  0  0  0  0  0  0  0  0  0  0
    2.5904    2.2681   -0.6680 C   0  0  0  0  0  0  0  0  0  0  0  0
    3.2460    3.2835   -1.3464 C   0  0  0  0  0  0  0  0  0  0  0  0
    4.4045    2.9965   -2.0676 C   0  0  0  0  0  0  0  0  0  0  0  0
    4.9426    1.6989   -2.1230 C   0  0  0  0  0  0  0  0  0  0  0  0
    6.1135    1.4545   -2.8189 N   0  0  0  0  0  0  0  0  0  0  0  0
    7.0286    0.3857   -2.4262 C   0  0  0  0  0  0  0  0  0  0  0  0
    6.9300   -0.7587   -3.4250 C   0  0  0  0  0  0  0  0  0  0  0  0
    7.0396   -0.2622   -4.8422 C   0  0  0  0  0  0  0  0  0  0  0  0
    7.3666   -1.1817   -5.7800 N   0  0  0  0  0  0  0  0  0  0  0  0
    7.4275   -0.7644   -7.0598 C   0  0  0  0  0  0  0  0  0  0  0  0
    7.7242   -1.7961   -8.1228 C   0  0  0  0  0  0  0  0  0  0  0  0
    9.2195   -1.4236   -9.0906 S   0  0  0  0  0  0  0  0  0  0  0  0
    7.1841    0.5018   -7.4576 N   0  0  0  0  0  0  0  0  0  0  0  0
    6.8623    1.3827   -6.4905 C   0  0  0  0  0  0  0  0  0  0  0  0
    6.7548    1.0575   -5.1529 C   0  0  0  0  0  0  0  0  0  0  0  0
    6.3904    2.0842   -4.1160 C   0  0  0  0  0  0  0  0  0  0  0  0
    4.2554    0.6821   -1.4326 C   0  0  0  0  0  0  0  0  0  0  0  0
    3.9699   -1.0484    0.6703 H   0  0  0  0  0  0  0  0  0  0  0  0
    0.3318   -1.9095    0.5180 H   0  0  0  0  0  0  0  0  0  0  0  0
   -0.6909   -3.6566    1.8427 H   0  0  0  0  0  0  0  0  0  0  0  0
    0.6574   -5.0182    3.3994 H   0  0  0  0  0  0  0  0  0  0  0  0
    4.1698   -2.7495    2.3209 H   0  0  0  0  0  0  0  0  0  0  0  0
    1.6775    2.4852   -0.1180 H   0  0  0  0  0  0  0  0  0  0  0  0
    2.8560    4.2967   -1.3136 H   0  0  0  0  0  0  0  0  0  0  0  0
    4.9072    3.8214   -2.5677 H   0  0  0  0  0  0  0  0  0  0  0  0
    6.8441    0.0283   -1.4067 H   0  0  0  0  0  0  0  0  0  0  0  0
    8.0494    0.7913   -2.4141 H   0  0  0  0  0  0  0  0  0  0  0  0
    5.9661   -1.2696   -3.3192 H   0  0  0  0  0  0  0  0  0  0  0  0
    7.7213   -1.4891   -3.2198 H   0  0  0  0  0  0  0  0  0  0  0  0
    6.8714   -1.8506   -8.8053 H   0  0  0  0  0  0  0  0  0  0  0  0
    7.8490   -2.7825   -7.6671 H   0  0  0  0  0  0  0  0  0  0  0  0
    8.8680   -0.1626   -9.3888 H   0  0  0  0  0  0  0  0  0  0  0  0
    6.6811    2.3947   -6.8434 H   0  0  0  0  0  0  0  0  0  0  0  0
    5.5292    2.6553   -4.4860 H   0  0  0  0  0  0  0  0  0  0  0  0
    7.2312    2.7809   -3.9992 H   0  0  0  0  0  0  0  0  0  0  0  0
    4.5881   -0.3479   -1.5125 H   0  0  0  0  0  0  0  0  0  0  0  0
  1  2  2  0  0  0  0
  2  3  1  0  0  0  0
  2 14  1  0  0  0  0
  3  4  1  0  0  0  0
  3 32  1  0  0  0  0
  4  5  1  0  0  0  0
  4 13  2  0  0  0  0
  5  6  2  0  0  0  0
  5 33  1  0  0  0  0
  6  7  1  0  0  0  0
  6 34  1  0  0  0  0
  7  8  2  0  0  0  0
  7 35  1  0  0  0  0
  8  9  1  0  0  0  0
  8 13  1  0  0  0  0
  9 10  1  0  0  0  0
  9 11  1  0  0  0  0
  9 12  1  0  0  0  0
 13 36  1  0  0  0  0
 14 15  1  0  0  0  0
 14 31  2  0  0  0  0
 15 16  2  0  0  0  0
 15 37  1  0  0  0  0
 16 17  1  0  0  0  0
 16 38  1  0  0  0  0
 17 18  2  0  0  0  0
 17 39  1  0  0  0  0
 18 19  1  0  0  0  0
 18 31  1  0  0  0  0
 19 20  1  0  0  0  0
 19 30  1  0  0  0  0
 20 21  1  0  0  0  0
 20 40  1  0  0  0  0
 20 41  1  0  0  0  0
 21 22  1  0  0  0  0
 21 42  1  0  0  0  0
 21 43  1  0  0  0  0
 22 23  1  0  0  0  0
 22 29  2  0  0  0  0
 23 24  2  0  0  0  0
 24 25  1  0  0  0  0
 24 27  1  0  0  0  0
 25 26  1  0  0  0  0
 25 44  1  0  0  0  0
 25 45  1  0  0  0  0
 26 46  1  0  0  0  0
 27 28  2  0  0  0  0
 28 29  1  0  0  0  0
 28 47  1  0  0  0  0
 29 30  1  0  0  0  0
 30 48  1  0  0  0  0
 30 49  1  0  0  0  0
 31 50  1  0  0  0  0
M  END
$$$$
