CHEMBL495089
 OpenBabel04072215383D

 56 60  0  0  0  0  0  0  0  0999 V2000
    2.6180   -0.2515    1.2311 O   0  0  0  0  0  0  0  0  0  0  0  0
    2.0501    0.3685    0.3401 C   0  0  0  0  0  0  0  0  0  0  0  0
    0.6983    0.6986    0.2871 N   0  0  0  0  0  0  0  0  0  0  0  0
   -0.2169    0.3472    1.2931 C   0  0  0  0  0  0  0  0  0  0  0  0
    0.0575   -0.6851    2.1917 C   0  0  0  0  0  0  0  0  0  0  0  0
   -0.8996   -1.0865    3.1117 C   0  0  0  0  0  0  0  0  0  0  0  0
   -2.0785   -0.3602    3.2411 C   0  0  0  0  0  0  0  0  0  0  0  0
   -2.3032    0.7680    2.4427 C   0  0  0  0  0  0  0  0  0  0  0  0
   -3.4874    1.6556    2.7028 C   0  0  0  0  0  0  0  0  0  0  0  0
   -4.2325    1.2128    3.7539 F   0  0  0  0  0  0  0  0  0  0  0  0
   -3.1314    2.9322    3.0018 F   0  0  0  0  0  0  0  0  0  0  0  0
   -4.3449    1.7348    1.6479 F   0  0  0  0  0  0  0  0  0  0  0  0
   -1.3866    1.0887    1.4291 C   0  0  0  0  0  0  0  0  0  0  0  0
    2.8732    0.9565   -0.7252 C   0  0  0  0  0  0  0  0  0  0  0  0
    2.6334    2.0650   -1.4507 C   0  0  0  0  0  0  0  0  0  0  0  0
    3.5148    2.2875   -2.5345 C   0  0  0  0  0  0  0  0  0  0  0  0
    4.6116    1.3100   -2.9575 C   0  0  0  0  0  0  0  0  0  0  0  0
    4.7755    0.0725   -2.2618 C   0  0  0  0  0  0  0  0  0  0  0  0
    3.8245    0.1196   -1.2456 C   0  0  0  0  0  0  0  0  0  0  0  0
    3.7981   -1.2237   -0.9863 C   0  0  0  0  0  0  0  0  0  0  0  0
    3.4262   -2.4580   -0.5158 C   0  0  0  0  0  0  0  0  0  0  0  0
    4.5776   -3.1618   -1.2555 N   0  0  0  0  0  0  0  0  0  0  0  0
    4.5397   -4.4339    0.1245 C   0  0  0  0  0  0  0  0  0  0  0  0
    4.6874   -4.9061    1.9535 C   0  0  0  0  0  0  0  0  0  0  0  0
    5.2026   -6.3609    2.5603 C   0  0  0  0  0  0  0  0  0  0  0  0
    5.4577   -6.5653    3.9116 C   0  0  0  0  0  0  0  0  0  0  0  0
    5.1802   -5.3800    4.1559 N   0  0  0  0  0  0  0  0  0  0  0  0
    4.9001   -4.1888    4.4603 C   0  0  0  0  0  0  0  0  0  0  0  0
    4.9211   -3.7940    5.7967 C   0  0  0  0  0  0  0  0  0  0  0  0
    4.6387   -2.4899    6.0290 C   0  0  0  0  0  0  0  0  0  0  0  0
    4.4065   -1.7241    4.8941 C   0  0  0  0  0  0  0  0  0  0  0  0
    4.4167   -2.3115    3.5425 C   0  0  0  0  0  0  0  0  0  0  0  0
    4.6129   -3.7081    3.1896 C   0  0  0  0  0  0  0  0  0  0  0  0
    5.5542   -1.7022   -2.1155 C   0  0  0  0  0  0  0  0  0  0  0  0
    0.3660    1.3356   -0.4343 H   0  0  0  0  0  0  0  0  0  0  0  0
    1.0377   -1.1575    2.2308 H   0  0  0  0  0  0  0  0  0  0  0  0
   -0.6570   -1.8753    3.8220 H   0  0  0  0  0  0  0  0  0  0  0  0
   -2.7857   -0.6311    4.0233 H   0  0  0  0  0  0  0  0  0  0  0  0
   -1.6132    1.8912    0.7300 H   0  0  0  0  0  0  0  0  0  0  0  0
    1.7692    2.6657   -1.1836 H   0  0  0  0  0  0  0  0  0  0  0  0
    3.3162    3.2284   -3.0651 H   0  0  0  0  0  0  0  0  0  0  0  0
    5.1454    1.6881   -3.8344 H   0  0  0  0  0  0  0  0  0  0  0  0
    4.7686   -1.1368   -0.4153 H   0  0  0  0  0  0  0  0  0  0  0  0
    3.5504   -1.5105   -2.0617 H   0  0  0  0  0  0  0  0  0  0  0  0
    2.4147   -2.6437   -0.8528 H   0  0  0  0  0  0  0  0  0  0  0  0
    3.5712   -2.3172    0.5499 H   0  0  0  0  0  0  0  0  0  0  0  0
    5.4486   -3.8554    0.4651 H   0  0  0  0  0  0  0  0  0  0  0  0
    5.0306   -5.3364   -0.2970 H   0  0  0  0  0  0  0  0  0  0  0  0
    5.4146   -7.2684    2.0171 H   0  0  0  0  0  0  0  0  0  0  0  0
    5.7157   -7.1663    4.7656 H   0  0  0  0  0  0  0  0  0  0  0  0
    5.1614   -4.5045    6.5825 H   0  0  0  0  0  0  0  0  0  0  0  0
    4.6582   -2.1173    7.0459 H   0  0  0  0  0  0  0  0  0  0  0  0
    4.2522   -0.6583    5.0616 H   0  0  0  0  0  0  0  0  0  0  0  0
    4.3621   -1.6401    2.7151 H   0  0  0  0  0  0  0  0  0  0  0  0
    5.6630   -1.9289   -3.1915 H   0  0  0  0  0  0  0  0  0  0  0  0
    6.5108   -1.4279   -1.6238 H   0  0  0  0  0  0  0  0  0  0  0  0
  1  2  2  0  0  0  0
  2  3  1  0  0  0  0
  2 14  1  0  0  0  0
  3  4  1  0  0  0  0
  3 35  1  0  0  0  0
  4  5  1  0  0  0  0
  4 13  2  0  0  0  0
  5  6  2  0  0  0  0
  5 36  1  0  0  0  0
  6  7  1  0  0  0  0
  6 37  1  0  0  0  0
  7  8  2  0  0  0  0
  7 38  1  0  0  0  0
  8  9  1  0  0  0  0
  8 13  1  0  0  0  0
  9 10  1  0  0  0  0
  9 11  1  0  0  0  0
  9 12  1  0  0  0  0
 13 39  1  0  0  0  0
 14 15  1  0  0  0  0
 14 19  2  0  0  0  0
 15 16  2  0  0  0  0
 15 40  1  0  0  0  0
 16 17  1  0  0  0  0
 16 41  1  0  0  0  0
 17 18  2  0  0  0  0
 17 42  1  0  0  0  0
 18 19  1  0  0  0  0
 18 34  1  0  0  0  0
 19 20  1  0  0  0  0
 20 21  1  0  0  0  0
 20 43  1  0  0  0  0
 20 44  1  0  0  0  0
 21 22  1  0  0  0  0
 21 45  1  0  0  0  0
 21 46  1  0  0  0  0
 22 23  1  0  0  0  0
 22 34  1  0  0  0  0
 23 24  1  0  0  0  0
 23 47  1  0  0  0  0
 23 48  1  0  0  0  0
 24 25  1  0  0  0  0
 24 33  2  0  0  0  0
 25 26  2  0  0  0  0
 25 49  1  0  0  0  0
 26 27  1  0  0  0  0
 26 50  1  0  0  0  0
 27 28  2  0  0  0  0
 28 29  1  0  0  0  0
 28 33  1  0  0  0  0
 29 30  2  0  0  0  0
 29 51  1  0  0  0  0
 30 31  1  0  0  0  0
 30 52  1  0  0  0  0
 31 32  2  0  0  0  0
 31 53  1  0  0  0  0
 32 33  1  0  0  0  0
 32 54  1  0  0  0  0
 34 55  1  0  0  0  0
 34 56  1  0  0  0  0
M  END
$$$$
