CHEMBL3759041
 OpenBabel04072215373D

 50 52  0  0  0  0  0  0  0  0999 V2000
    2.6432    1.2703   -0.9210 C   0  0  0  0  0  0  0  0  0  0  0  0
    2.3955    0.1668   -0.0569 O   0  0  0  0  0  0  0  0  0  0  0  0
    3.0625    0.0942    1.1331 C   0  0  0  0  0  0  0  0  0  0  0  0
    4.2053    0.8472    1.4253 C   0  0  0  0  0  0  0  0  0  0  0  0
    4.8176    0.8183    2.6695 C   0  0  0  0  0  0  0  0  0  0  0  0
    5.8834    1.5992    2.8590 N   0  0  0  0  0  0  0  0  0  0  0  0
    6.4479    1.5591    4.0675 C   0  0  0  0  0  0  0  0  0  0  0  0
    6.0574    0.7946    5.0866 N   0  0  0  0  0  0  0  0  0  0  0  0
    4.9915   -0.0039    4.8836 C   0  0  0  0  0  0  0  0  0  0  0  0
    4.5888   -0.8785    5.9347 N   0  0  0  0  0  0  0  0  0  0  0  0
    5.1077   -0.8069    7.2483 C   0  0  0  0  0  0  0  0  0  0  0  0
    5.1501    0.4179    7.9335 C   0  0  0  0  0  0  0  0  0  0  0  0
    5.7386    0.5147    9.1932 C   0  0  0  0  0  0  0  0  0  0  0  0
    6.2764   -0.6220    9.7791 C   0  0  0  0  0  0  0  0  0  0  0  0
    6.8699   -0.5288   10.9760 F   0  0  0  0  0  0  0  0  0  0  0  0
    6.2136   -1.8546    9.1382 C   0  0  0  0  0  0  0  0  0  0  0  0
    5.6207   -1.9502    7.8766 C   0  0  0  0  0  0  0  0  0  0  0  0
    4.2953   -0.0165    3.6645 C   0  0  0  0  0  0  0  0  0  0  0  0
    3.1462   -0.7908    3.3818 C   0  0  0  0  0  0  0  0  0  0  0  0
    2.5589   -0.7687    2.1149 C   0  0  0  0  0  0  0  0  0  0  0  0
    1.4603   -1.5784    1.9897 O   0  0  0  0  0  0  0  0  0  0  0  0
    1.4231   -2.3723    0.7996 C   0  0  0  0  0  0  0  0  0  0  0  0
    0.3514   -3.4572    0.9575 C   0  0  0  0  0  0  0  0  0  0  0  0
   -1.0185   -2.8371    1.2432 C   0  0  0  0  0  0  0  0  0  0  0  0
   -2.1482   -3.8632    1.2554 C   0  0  0  0  0  0  0  0  0  0  0  0
   -3.4838   -3.1906    1.5105 C   0  0  0  0  0  0  0  0  0  0  0  0
   -3.6355   -1.9859    1.6944 O   0  0  0  0  0  0  0  0  0  0  0  0
   -4.5508   -4.0586    1.5108 N   0  0  0  0  0  0  0  0  0  0  0  0
   -5.7931   -3.4740    1.8652 O   0  0  0  0  0  0  0  0  0  0  0  0
    3.3403    0.9656   -1.7073 H   0  0  0  0  0  0  0  0  0  0  0  0
    3.0059    2.1696   -0.4148 H   0  0  0  0  0  0  0  0  0  0  0  0
    1.6930    1.5401   -1.3916 H   0  0  0  0  0  0  0  0  0  0  0  0
    4.6598    1.4910    0.6783 H   0  0  0  0  0  0  0  0  0  0  0  0
    7.3057    2.2009    4.2351 H   0  0  0  0  0  0  0  0  0  0  0  0
    4.5723   -1.8280    5.5798 H   0  0  0  0  0  0  0  0  0  0  0  0
    4.7418    1.3121    7.4670 H   0  0  0  0  0  0  0  0  0  0  0  0
    5.7925    1.4691    9.7049 H   0  0  0  0  0  0  0  0  0  0  0  0
    6.6418   -2.7284    9.6186 H   0  0  0  0  0  0  0  0  0  0  0  0
    5.5991   -2.9154    7.3778 H   0  0  0  0  0  0  0  0  0  0  0  0
    2.6962   -1.4112    4.1541 H   0  0  0  0  0  0  0  0  0  0  0  0
    2.3964   -2.8456    0.6212 H   0  0  0  0  0  0  0  0  0  0  0  0
    1.1483   -1.7607   -0.0639 H   0  0  0  0  0  0  0  0  0  0  0  0
    0.6216   -4.1280    1.7816 H   0  0  0  0  0  0  0  0  0  0  0  0
    0.3124   -4.0565    0.0401 H   0  0  0  0  0  0  0  0  0  0  0  0
   -1.2342   -2.0718    0.4871 H   0  0  0  0  0  0  0  0  0  0  0  0
   -0.9927   -2.3226    2.2119 H   0  0  0  0  0  0  0  0  0  0  0  0
   -1.9754   -4.6092    2.0394 H   0  0  0  0  0  0  0  0  0  0  0  0
   -2.2002   -4.3800    0.2904 H   0  0  0  0  0  0  0  0  0  0  0  0
   -4.4510   -5.0484    1.6959 H   0  0  0  0  0  0  0  0  0  0  0  0
   -5.5525   -2.5287    1.9922 H   0  0  0  0  0  0  0  0  0  0  0  0
  1  2  1  0  0  0  0
  1 30  1  0  0  0  0
  1 31  1  0  0  0  0
  1 32  1  0  0  0  0
  2  3  1  0  0  0  0
  3  4  1  0  0  0  0
  3 20  2  0  0  0  0
  4  5  2  0  0  0  0
  4 33  1  0  0  0  0
  5  6  1  0  0  0  0
  5 18  1  0  0  0  0
  6  7  2  0  0  0  0
  7  8  1  0  0  0  0
  7 34  1  0  0  0  0
  8  9  2  0  0  0  0
  9 10  1  0  0  0  0
  9 18  1  0  0  0  0
 10 11  1  0  0  0  0
 10 35  1  0  0  0  0
 11 12  1  0  0  0  0
 11 17  2  0  0  0  0
 12 13  2  0  0  0  0
 12 36  1  0  0  0  0
 13 14  1  0  0  0  0
 13 37  1  0  0  0  0
 14 15  1  0  0  0  0
 14 16  2  0  0  0  0
 16 17  1  0  0  0  0
 16 38  1  0  0  0  0
 17 39  1  0  0  0  0
 18 19  2  0  0  0  0
 19 20  1  0  0  0  0
 19 40  1  0  0  0  0
 20 21  1  0  0  0  0
 21 22  1  0  0  0  0
 22 23  1  0  0  0  0
 22 41  1  0  0  0  0
 22 42  1  0  0  0  0
 23 24  1  0  0  0  0
 23 43  1  0  0  0  0
 23 44  1  0  0  0  0
 24 25  1  0  0  0  0
 24 45  1  0  0  0  0
 24 46  1  0  0  0  0
 25 26  1  0  0  0  0
 25 47  1  0  0  0  0
 25 48  1  0  0  0  0
 26 27  2  0  0  0  0
 26 28  1  0  0  0  0
 28 29  1  0  0  0  0
 28 49  1  0  0  0  0
 29 50  1  0  0  0  0
M  END
$$$$
