CHEMBL1076195
 OpenBabel04072215353D

 83 87  0  0  0  0  0  0  0  0999 V2000
   16.0247   -0.2218    0.2610 C   0  0  0  0  0  0  0  0  0  0  0  0
   15.0959    0.9271    0.6280 C   0  0  0  0  0  0  0  0  0  0  0  0
   13.8838    1.0803   -0.1920 N   0  0  0  0  0  0  0  0  0  0  0  0
   13.0245   -0.1161   -0.2447 C   0  0  0  0  0  0  0  0  0  0  0  0
   12.3516   -0.5493    1.0562 C   0  0  0  0  0  0  0  0  0  0  0  0
   13.1254    2.2797    0.2178 C   0  0  0  0  0  0  0  0  0  0  0  0
   13.9072    3.5952    0.0309 C   0  0  0  0  0  0  0  0  0  0  0  0
   14.3365    3.8571   -1.4174 C   0  0  0  0  0  0  0  0  0  0  0  0
   13.1503    3.9551   -2.3774 C   0  0  0  0  0  0  0  0  0  0  0  0
   12.3045    5.0769   -1.9795 N   0  0  0  0  0  0  0  0  0  0  0  0
   11.1969    5.2718   -2.8225 C   0  0  0  0  0  0  0  0  0  0  0  0
   10.6854    6.5426   -2.9131 C   0  0  0  0  0  0  0  0  0  0  0  0
    9.5625    6.7436   -3.6973 C   0  0  0  0  0  0  0  0  0  0  0  0
    8.9762    8.0396   -3.6927 N   0  0  0  0  0  0  0  0  0  0  0  0
    8.2697    8.6871   -4.7141 C   0  0  0  0  0  0  0  0  0  0  0  0
    8.0548    8.1320   -5.9426 N   0  0  0  0  0  0  0  0  0  0  0  0
    6.9311    8.4243   -6.7774 C   0  0  0  0  0  0  0  0  0  0  0  0
    5.7127    8.8770   -6.2326 C   0  0  0  0  0  0  0  0  0  0  0  0
    4.5678    9.0033   -7.0522 C   0  0  0  0  0  0  0  0  0  0  0  0
    3.1703    9.1886   -6.5589 C   0  0  0  0  0  0  0  0  0  0  0  0
    2.2875    8.7082   -7.2613 O   0  0  0  0  0  0  0  0  0  0  0  0
    2.9497    9.9050   -5.3973 N   0  0  0  0  0  0  0  0  0  0  0  0
    1.6635   10.0815   -4.8143 C   0  0  0  0  0  0  0  0  0  0  0  0
    0.5508    9.2965   -5.1594 C   0  0  0  0  0  0  0  0  0  0  0  0
   -0.6813    9.4655   -4.5226 C   0  0  0  0  0  0  0  0  0  0  0  0
   -0.8302   10.4477   -3.5520 C   0  0  0  0  0  0  0  0  0  0  0  0
    0.2523   11.2629   -3.2100 C   0  0  0  0  0  0  0  0  0  0  0  0
    0.0875   12.3670   -2.2103 C   0  0  0  0  0  0  0  0  0  0  0  0
    1.4978   11.0627   -3.8365 C   0  0  0  0  0  0  0  0  0  0  0  0
    4.6719    8.7420   -8.4252 C   0  0  0  0  0  0  0  0  0  0  0  0
    5.8779    8.3634   -8.9789 C   0  0  0  0  0  0  0  0  0  0  0  0
    7.0107    8.1831   -8.1807 C   0  0  0  0  0  0  0  0  0  0  0  0
    8.2692    7.7219   -8.8574 C   0  0  0  0  0  0  0  0  0  0  0  0
    7.9356    9.9086   -4.3343 N   0  0  0  0  0  0  0  0  0  0  0  0
    8.2979   10.0208   -3.0171 C   0  0  0  0  0  0  0  0  0  0  0  0
    8.0740   11.0649   -2.1127 C   0  0  0  0  0  0  0  0  0  0  0  0
    8.4492   10.9135   -0.7701 C   0  0  0  0  0  0  0  0  0  0  0  0
    9.0635    9.7392   -0.3361 C   0  0  0  0  0  0  0  0  0  0  0  0
    9.3097    8.7007   -1.2228 C   0  0  0  0  0  0  0  0  0  0  0  0
    8.9341    8.8700   -2.5760 C   0  0  0  0  0  0  0  0  0  0  0  0
    8.9846    5.7518   -4.4010 N   0  0  0  0  0  0  0  0  0  0  0  0
    9.5136    4.5342   -4.1843 C   0  0  0  0  0  0  0  0  0  0  0  0
   10.5915    4.2467   -3.4340 N   0  0  0  0  0  0  0  0  0  0  0  0
   17.0015   -0.0498    0.7293 H   0  0  0  0  0  0  0  0  0  0  0  0
   16.1881   -0.2817   -0.8195 H   0  0  0  0  0  0  0  0  0  0  0  0
   15.6472   -1.1809    0.6242 H   0  0  0  0  0  0  0  0  0  0  0  0
   15.7163    1.8187    0.5002 H   0  0  0  0  0  0  0  0  0  0  0  0
   14.8445    0.8686    1.6930 H   0  0  0  0  0  0  0  0  0  0  0  0
   13.6046   -0.9600   -0.6356 H   0  0  0  0  0  0  0  0  0  0  0  0
   12.2395    0.0453   -0.9964 H   0  0  0  0  0  0  0  0  0  0  0  0
   13.0412   -0.5387    1.9039 H   0  0  0  0  0  0  0  0  0  0  0  0
   11.9781   -1.5745    0.9527 H   0  0  0  0  0  0  0  0  0  0  0  0
   11.4942    0.0884    1.2964 H   0  0  0  0  0  0  0  0  0  0  0  0
   12.8213    2.2026    1.2680 H   0  0  0  0  0  0  0  0  0  0  0  0
   12.1956    2.3447   -0.3609 H   0  0  0  0  0  0  0  0  0  0  0  0
   14.7947    3.6171    0.6728 H   0  0  0  0  0  0  0  0  0  0  0  0
   13.2890    4.4259    0.3921 H   0  0  0  0  0  0  0  0  0  0  0  0
   15.0126    3.0664   -1.7635 H   0  0  0  0  0  0  0  0  0  0  0  0
   14.9171    4.7897   -1.4474 H   0  0  0  0  0  0  0  0  0  0  0  0
   12.5921    3.0142   -2.3886 H   0  0  0  0  0  0  0  0  0  0  0  0
   13.5325    4.1286   -3.3907 H   0  0  0  0  0  0  0  0  0  0  0  0
   12.8540    5.9270   -1.8943 H   0  0  0  0  0  0  0  0  0  0  0  0
   11.1919    7.3544   -2.4056 H   0  0  0  0  0  0  0  0  0  0  0  0
    8.3059    7.1480   -6.0473 H   0  0  0  0  0  0  0  0  0  0  0  0
    5.6206    9.0461   -5.1681 H   0  0  0  0  0  0  0  0  0  0  0  0
    3.7193   10.4240   -4.9885 H   0  0  0  0  0  0  0  0  0  0  0  0
    0.6078    8.5143   -5.9059 H   0  0  0  0  0  0  0  0  0  0  0  0
   -1.5123    8.8194   -4.7908 H   0  0  0  0  0  0  0  0  0  0  0  0
   -1.7966   10.5633   -3.0650 H   0  0  0  0  0  0  0  0  0  0  0  0
   -0.8602   12.2806   -1.6689 H   0  0  0  0  0  0  0  0  0  0  0  0
    0.1045   13.3372   -2.7176 H   0  0  0  0  0  0  0  0  0  0  0  0
    0.8960   12.3299   -1.4745 H   0  0  0  0  0  0  0  0  0  0  0  0
    2.3346   11.7021   -3.5579 H   0  0  0  0  0  0  0  0  0  0  0  0
    3.7916    8.8077   -9.0602 H   0  0  0  0  0  0  0  0  0  0  0  0
    5.9126    8.1641  -10.0596 H   0  0  0  0  0  0  0  0  0  0  0  0
    8.1178    7.5895   -9.9330 H   0  0  0  0  0  0  0  0  0  0  0  0
    8.5823    6.7527   -8.4565 H   0  0  0  0  0  0  0  0  0  0  0  0
    9.0734    8.4562   -8.7334 H   0  0  0  0  0  0  0  0  0  0  0  0
    7.5723   11.9712   -2.4421 H   0  0  0  0  0  0  0  0  0  0  0  0
    8.2420   11.6962   -0.0536 H   0  0  0  0  0  0  0  0  0  0  0  0
    9.3365    9.6141    0.7114 H   0  0  0  0  0  0  0  0  0  0  0  0
    9.7425    7.7787   -0.8466 H   0  0  0  0  0  0  0  0  0  0  0  0
    9.0181    3.6892   -4.6528 H   0  0  0  0  0  0  0  0  0  0  0  0
  1  2  1  0  0  0  0
  1 44  1  0  0  0  0
  1 45  1  0  0  0  0
  1 46  1  0  0  0  0
  2  3  1  0  0  0  0
  2 47  1  0  0  0  0
  2 48  1  0  0  0  0
  3  4  1  0  0  0  0
  3  6  1  0  0  0  0
  4  5  1  0  0  0  0
  4 49  1  0  0  0  0
  4 50  1  0  0  0  0
  5 51  1  0  0  0  0
  5 52  1  0  0  0  0
  5 53  1  0  0  0  0
  6  7  1  0  0  0  0
  6 54  1  0  0  0  0
  6 55  1  0  0  0  0
  7  8  1  0  0  0  0
  7 56  1  0  0  0  0
  7 57  1  0  0  0  0
  8  9  1  0  0  0  0
  8 58  1  0  0  0  0
  8 59  1  0  0  0  0
  9 10  1  0  0  0  0
  9 60  1  0  0  0  0
  9 61  1  0  0  0  0
 10 11  1  0  0  0  0
 10 62  1  0  0  0  0
 11 12  1  0  0  0  0
 11 43  2  0  0  0  0
 12 13  2  0  0  0  0
 12 63  1  0  0  0  0
 13 14  1  0  0  0  0
 13 41  1  0  0  0  0
 14 15  1  0  0  0  0
 14 40  1  0  0  0  0
 15 16  1  0  0  0  0
 15 34  2  0  0  0  0
 16 17  1  0  0  0  0
 16 64  1  0  0  0  0
 17 18  1  0  0  0  0
 17 32  2  0  0  0  0
 18 19  2  0  0  0  0
 18 65  1  0  0  0  0
 19 20  1  0  0  0  0
 19 30  1  0  0  0  0
 20 21  2  0  0  0  0
 20 22  1  0  0  0  0
 22 23  1  0  0  0  0
 22 66  1  0  0  0  0
 23 24  1  0  0  0  0
 23 29  2  0  0  0  0
 24 25  2  0  0  0  0
 24 67  1  0  0  0  0
 25 26  1  0  0  0  0
 25 68  1  0  0  0  0
 26 27  2  0  0  0  0
 26 69  1  0  0  0  0
 27 28  1  0  0  0  0
 27 29  1  0  0  0  0
 28 70  1  0  0  0  0
 28 71  1  0  0  0  0
 28 72  1  0  0  0  0
 29 73  1  0  0  0  0
 30 31  2  0  0  0  0
 30 74  1  0  0  0  0
 31 32  1  0  0  0  0
 31 75  1  0  0  0  0
 32 33  1  0  0  0  0
 33 76  1  0  0  0  0
 33 77  1  0  0  0  0
 33 78  1  0  0  0  0
 34 35  1  0  0  0  0
 35 36  1  0  0  0  0
 35 40  2  0  0  0  0
 36 37  2  0  0  0  0
 36 79  1  0  0  0  0
 37 38  1  0  0  0  0
 37 80  1  0  0  0  0
 38 39  2  0  0  0  0
 38 81  1  0  0  0  0
 39 40  1  0  0  0  0
 39 82  1  0  0  0  0
 41 42  2  0  0  0  0
 42 43  1  0  0  0  0
 42 83  1  0  0  0  0
M  END
$$$$
