CHEMBL3775169
 OpenBabel04072215373D

 37 39  0  0  0  0  0  0  0  0999 V2000
    3.3819    0.2539   -1.2015 C   0  0  0  0  0  0  0  0  0  0  0  0
    2.4513   -0.0341   -0.1526 O   0  0  0  0  0  0  0  0  0  0  0  0
    2.9603   -0.0213    1.1200 C   0  0  0  0  0  0  0  0  0  0  0  0
    4.0188    0.8410    1.4687 C   0  0  0  0  0  0  0  0  0  0  0  0
    4.6560    0.7821    2.6968 C   0  0  0  0  0  0  0  0  0  0  0  0
    5.7232    1.5618    2.9013 N   0  0  0  0  0  0  0  0  0  0  0  0
    6.3760    1.3878    4.0532 C   0  0  0  0  0  0  0  0  0  0  0  0
    6.0608    0.5111    5.0070 N   0  0  0  0  0  0  0  0  0  0  0  0
    4.9641   -0.2444    4.8084 C   0  0  0  0  0  0  0  0  0  0  0  0
    4.6523   -1.2473    5.7611 N   0  0  0  0  0  0  0  0  0  0  0  0
    5.5781   -1.7611    6.6953 C   0  0  0  0  0  0  0  0  0  0  0  0
    6.8955   -2.0550    6.3098 C   0  0  0  0  0  0  0  0  0  0  0  0
    7.8265   -2.4670    7.2570 C   0  0  0  0  0  0  0  0  0  0  0  0
    9.1212   -2.7054    6.8940 O   0  0  0  0  0  0  0  0  0  0  0  0
    7.4443   -2.6216    8.5874 C   0  0  0  0  0  0  0  0  0  0  0  0
    8.3468   -2.9797    9.5121 F   0  0  0  0  0  0  0  0  0  0  0  0
    6.1294   -2.3975    8.9799 C   0  0  0  0  0  0  0  0  0  0  0  0
    5.2058   -1.9800    8.0278 C   0  0  0  0  0  0  0  0  0  0  0  0
    3.9380   -1.7501    8.4040 F   0  0  0  0  0  0  0  0  0  0  0  0
    4.1924   -0.1359    3.6423 C   0  0  0  0  0  0  0  0  0  0  0  0
    3.0578   -0.9186    3.3458 C   0  0  0  0  0  0  0  0  0  0  0  0
    2.4436   -0.8829    2.0896 C   0  0  0  0  0  0  0  0  0  0  0  0
    1.4094   -1.7704    2.0210 O   0  0  0  0  0  0  0  0  0  0  0  0
    0.7417   -1.9956    0.7946 C   0  0  0  0  0  0  0  0  0  0  0  0
    3.1432   -0.3881   -2.0563 H   0  0  0  0  0  0  0  0  0  0  0  0
    4.4268    0.0504   -0.9387 H   0  0  0  0  0  0  0  0  0  0  0  0
    3.2675    1.2973   -1.5122 H   0  0  0  0  0  0  0  0  0  0  0  0
    4.3930    1.5695    0.7536 H   0  0  0  0  0  0  0  0  0  0  0  0
    7.2566    1.9977    4.2200 H   0  0  0  0  0  0  0  0  0  0  0  0
    3.7312   -1.0926    6.1598 H   0  0  0  0  0  0  0  0  0  0  0  0
    7.1833   -1.9369    5.2687 H   0  0  0  0  0  0  0  0  0  0  0  0
    9.2334   -2.4749    5.9566 H   0  0  0  0  0  0  0  0  0  0  0  0
    5.8377   -2.5281   10.0128 H   0  0  0  0  0  0  0  0  0  0  0  0
    2.6663   -1.6112    4.0882 H   0  0  0  0  0  0  0  0  0  0  0  0
    0.1563   -2.9130    0.9200 H   0  0  0  0  0  0  0  0  0  0  0  0
    1.4313   -2.1783   -0.0329 H   0  0  0  0  0  0  0  0  0  0  0  0
    0.0426   -1.1826    0.5798 H   0  0  0  0  0  0  0  0  0  0  0  0
  1  2  1  0  0  0  0
  1 25  1  0  0  0  0
  1 26  1  0  0  0  0
  1 27  1  0  0  0  0
  2  3  1  0  0  0  0
  3  4  1  0  0  0  0
  3 22  2  0  0  0  0
  4  5  2  0  0  0  0
  4 28  1  0  0  0  0
  5  6  1  0  0  0  0
  5 20  1  0  0  0  0
  6  7  2  0  0  0  0
  7  8  1  0  0  0  0
  7 29  1  0  0  0  0
  8  9  2  0  0  0  0
  9 10  1  0  0  0  0
  9 20  1  0  0  0  0
 10 11  1  0  0  0  0
 10 30  1  0  0  0  0
 11 12  1  0  0  0  0
 11 18  2  0  0  0  0
 12 13  2  0  0  0  0
 12 31  1  0  0  0  0
 13 14  1  0  0  0  0
 13 15  1  0  0  0  0
 14 32  1  0  0  0  0
 15 16  1  0  0  0  0
 15 17  2  0  0  0  0
 17 18  1  0  0  0  0
 17 33  1  0  0  0  0
 18 19  1  0  0  0  0
 20 21  2  0  0  0  0
 21 22  1  0  0  0  0
 21 34  1  0  0  0  0
 22 23  1  0  0  0  0
 23 24  1  0  0  0  0
 24 35  1  0  0  0  0
 24 36  1  0  0  0  0
 24 37  1  0  0  0  0
M  END
$$$$
