CHEMBL2031897
 OpenBabel04072215363D

 63 67  0  0  0  0  0  0  0  0999 V2000
    4.0873   -8.3227   10.1349 C   0  0  0  0  0  0  0  0  0  0  0  0
    4.4894   -8.7471    8.8295 O   0  0  0  0  0  0  0  0  0  0  0  0
    4.8431   -7.7429    7.9672 C   0  0  0  0  0  0  0  0  0  0  0  0
    5.3841   -6.5278    8.4271 C   0  0  0  0  0  0  0  0  0  0  0  0
    5.5812   -5.4354    7.5934 C   0  0  0  0  0  0  0  0  0  0  0  0
    5.9979   -4.2759    8.1340 N   0  0  0  0  0  0  0  0  0  0  0  0
    6.0947   -3.1989    7.3275 C   0  0  0  0  0  0  0  0  0  0  0  0
    5.7777   -3.2148    5.9848 C   0  0  0  0  0  0  0  0  0  0  0  0
    5.3548   -4.4189    5.4257 C   0  0  0  0  0  0  0  0  0  0  0  0
    5.0957   -4.3799    4.0705 O   0  0  0  0  0  0  0  0  0  0  0  0
    3.9327   -4.9657    3.5608 C   0  0  0  0  0  0  0  0  0  0  0  0
    3.9675   -5.2806    2.2125 C   0  0  0  0  0  0  0  0  0  0  0  0
    2.8633   -5.9200    1.6356 C   0  0  0  0  0  0  0  0  0  0  0  0
    1.7471   -6.2416    2.4087 C   0  0  0  0  0  0  0  0  0  0  0  0
    0.5662   -6.8651    1.9058 N   0  0  0  0  0  0  0  0  0  0  0  0
    0.2884   -7.1498    0.5762 C   0  0  0  0  0  0  0  0  0  0  0  0
    1.0610   -6.9192   -0.3485 O   0  0  0  0  0  0  0  0  0  0  0  0
   -1.0264   -7.7972    0.2930 C   0  0  0  0  0  0  0  0  0  0  0  0
   -1.5424   -8.1628   -0.9040 C   0  0  0  0  0  0  0  0  0  0  0  0
   -1.0083   -7.8448   -2.2634 C   0  0  0  0  0  0  0  0  0  0  0  0
   -2.7261   -8.8943   -0.7651 N   0  0  0  0  0  0  0  0  0  0  0  0
   -3.7876   -8.9608   -1.7693 C   0  0  0  0  0  0  0  0  0  0  0  0
   -3.1174   -8.7723    0.5812 N   0  0  0  0  0  0  0  0  0  0  0  0
   -4.1308   -9.5700    1.1491 C   0  0  0  0  0  0  0  0  0  0  0  0
   -5.0381   -8.9860    2.0404 C   0  0  0  0  0  0  0  0  0  0  0  0
   -6.1001   -9.7325    2.5570 C   0  0  0  0  0  0  0  0  0  0  0  0
   -6.2372  -11.0787    2.2210 C   0  0  0  0  0  0  0  0  0  0  0  0
   -5.3306  -11.6742    1.3454 C   0  0  0  0  0  0  0  0  0  0  0  0
   -4.2937  -10.9167    0.7950 C   0  0  0  0  0  0  0  0  0  0  0  0
   -2.0654   -8.1861    1.2975 C   0  0  0  0  0  0  0  0  0  0  0  0
   -1.9419   -7.9923    2.4993 O   0  0  0  0  0  0  0  0  0  0  0  0
    1.8268   -5.8982    3.7609 C   0  0  0  0  0  0  0  0  0  0  0  0
    2.8715   -5.2439    4.3492 N   0  0  0  0  0  0  0  0  0  0  0  0
    5.3057   -5.5802    6.2247 C   0  0  0  0  0  0  0  0  0  0  0  0
    4.9846   -6.8620    5.7422 C   0  0  0  0  0  0  0  0  0  0  0  0
    4.6888   -7.9259    6.5935 C   0  0  0  0  0  0  0  0  0  0  0  0
    4.2485   -9.0059    5.8858 O   0  0  0  0  0  0  0  0  0  0  0  0
    3.5399  -10.0390    6.5408 C   0  0  0  0  0  0  0  0  0  0  0  0
    3.3103   -9.0048   10.4919 H   0  0  0  0  0  0  0  0  0  0  0  0
    3.6550   -7.3143   10.1563 H   0  0  0  0  0  0  0  0  0  0  0  0
    4.9413   -8.3840   10.8164 H   0  0  0  0  0  0  0  0  0  0  0  0
    5.6294   -6.3927    9.4772 H   0  0  0  0  0  0  0  0  0  0  0  0
    6.4361   -2.2888    7.8131 H   0  0  0  0  0  0  0  0  0  0  0  0
    5.8549   -2.3137    5.3892 H   0  0  0  0  0  0  0  0  0  0  0  0
    4.8443   -5.0520    1.6160 H   0  0  0  0  0  0  0  0  0  0  0  0
    2.9262   -6.1630    0.5802 H   0  0  0  0  0  0  0  0  0  0  0  0
   -0.1570   -7.0971    2.5876 H   0  0  0  0  0  0  0  0  0  0  0  0
   -0.0118   -7.4073   -2.2702 H   0  0  0  0  0  0  0  0  0  0  0  0
   -1.6693   -7.1192   -2.7525 H   0  0  0  0  0  0  0  0  0  0  0  0
   -0.9705   -8.7469   -2.8803 H   0  0  0  0  0  0  0  0  0  0  0  0
   -3.4505   -8.6321   -2.7568 H   0  0  0  0  0  0  0  0  0  0  0  0
   -4.6483   -8.3437   -1.4912 H   0  0  0  0  0  0  0  0  0  0  0  0
   -4.1220   -9.9965   -1.8883 H   0  0  0  0  0  0  0  0  0  0  0  0
   -4.9546   -7.9326    2.2924 H   0  0  0  0  0  0  0  0  0  0  0  0
   -6.8238   -9.2605    3.2174 H   0  0  0  0  0  0  0  0  0  0  0  0
   -7.0533  -11.6619    2.6410 H   0  0  0  0  0  0  0  0  0  0  0  0
   -5.4296  -12.7295    1.0996 H   0  0  0  0  0  0  0  0  0  0  0  0
   -3.5866  -11.3983    0.1245 H   0  0  0  0  0  0  0  0  0  0  0  0
    1.0215   -6.1436    4.4487 H   0  0  0  0  0  0  0  0  0  0  0  0
    4.8780   -7.0362    4.6759 H   0  0  0  0  0  0  0  0  0  0  0  0
    2.9553  -10.5583    5.7725 H   0  0  0  0  0  0  0  0  0  0  0  0
    2.8271   -9.6703    7.2831 H   0  0  0  0  0  0  0  0  0  0  0  0
    4.2435  -10.7585    6.9657 H   0  0  0  0  0  0  0  0  0  0  0  0
  1  2  1  0  0  0  0
  1 39  1  0  0  0  0
  1 40  1  0  0  0  0
  1 41  1  0  0  0  0
  2  3  1  0  0  0  0
  3  4  1  0  0  0  0
  3 36  2  0  0  0  0
  4  5  2  0  0  0  0
  4 42  1  0  0  0  0
  5  6  1  0  0  0  0
  5 34  1  0  0  0  0
  6  7  2  0  0  0  0
  7  8  1  0  0  0  0
  7 43  1  0  0  0  0
  8  9  2  0  0  0  0
  8 44  1  0  0  0  0
  9 10  1  0  0  0  0
  9 34  1  0  0  0  0
 10 11  1  0  0  0  0
 11 12  1  0  0  0  0
 11 33  2  0  0  0  0
 12 13  2  0  0  0  0
 12 45  1  0  0  0  0
 13 14  1  0  0  0  0
 13 46  1  0  0  0  0
 14 15  1  0  0  0  0
 14 32  2  0  0  0  0
 15 16  1  0  0  0  0
 15 47  1  0  0  0  0
 16 17  2  0  0  0  0
 16 18  1  0  0  0  0
 18 19  2  0  0  0  0
 18 30  1  0  0  0  0
 19 20  1  0  0  0  0
 19 21  1  0  0  0  0
 20 48  1  0  0  0  0
 20 49  1  0  0  0  0
 20 50  1  0  0  0  0
 21 22  1  0  0  0  0
 21 23  1  0  0  0  0
 22 51  1  0  0  0  0
 22 52  1  0  0  0  0
 22 53  1  0  0  0  0
 23 24  1  0  0  0  0
 23 30  1  0  0  0  0
 24 25  1  0  0  0  0
 24 29  2  0  0  0  0
 25 26  2  0  0  0  0
 25 54  1  0  0  0  0
 26 27  1  0  0  0  0
 26 55  1  0  0  0  0
 27 28  2  0  0  0  0
 27 56  1  0  0  0  0
 28 29  1  0  0  0  0
 28 57  1  0  0  0  0
 29 58  1  0  0  0  0
 30 31  2  0  0  0  0
 32 33  1  0  0  0  0
 32 59  1  0  0  0  0
 34 35  2  0  0  0  0
 35 36  1  0  0  0  0
 35 60  1  0  0  0  0
 36 37  1  0  0  0  0
 37 38  1  0  0  0  0
 38 61  1  0  0  0  0
 38 62  1  0  0  0  0
 38 63  1  0  0  0  0
M  END
$$$$
