CHEMBL540203
 OpenBabel04072215383D

 40 43  0  0  0  0  0  0  0  0999 V2000
    1.2575   -0.2661   -1.8334 N   0  0  0  0  0  0  0  0  0  0  0  0
    2.5549   -0.2659   -1.3636 C   0  0  0  0  0  0  0  0  0  0  0  0
    3.3485    0.7337   -1.8030 N   0  0  0  0  0  0  0  0  0  0  0  0
    4.6067    0.8182   -1.3417 C   0  0  0  0  0  0  0  0  0  0  0  0
    5.2137    0.0120   -0.4649 N   0  0  0  0  0  0  0  0  0  0  0  0
    4.3895   -0.9662   -0.0583 C   0  0  0  0  0  0  0  0  0  0  0  0
    4.7447   -1.9209    0.8472 O   0  0  0  0  0  0  0  0  0  0  0  0
    3.6783   -2.7834    1.0645 N   0  0  0  0  0  0  0  0  0  0  0  0
    2.6962   -2.3395    0.2666 C   0  0  0  0  0  0  0  0  0  0  0  0
    1.3767   -3.0293    0.1772 C   0  0  0  0  0  0  0  0  0  0  0  0
    0.9229   -4.0993    0.9252 C   0  0  0  0  0  0  0  0  0  0  0  0
   -0.3986   -4.3866    0.4722 C   0  0  0  0  0  0  0  0  0  0  0  0
   -0.6489   -3.5138   -0.5623 C   0  0  0  0  0  0  0  0  0  0  0  0
   -1.7349   -3.3583   -1.3962 N   0  0  0  0  0  0  0  0  0  0  0  0
   -1.6296   -2.6117   -2.5603 C   0  0  0  0  0  0  0  0  0  0  0  0
   -0.5860   -2.0975   -2.9508 O   0  0  0  0  0  0  0  0  0  0  0  0
   -2.8429   -2.5075   -3.2303 N   0  0  0  0  0  0  0  0  0  0  0  0
   -3.0176   -1.8592   -4.4806 C   0  0  0  0  0  0  0  0  0  0  0  0
   -1.9563   -1.5959   -5.3530 C   0  0  0  0  0  0  0  0  0  0  0  0
   -2.1534   -0.8833   -6.5359 C   0  0  0  0  0  0  0  0  0  0  0  0
   -3.4250   -0.4365   -6.8744 C   0  0  0  0  0  0  0  0  0  0  0  0
   -4.5164   -0.7203   -6.0419 C   0  0  0  0  0  0  0  0  0  0  0  0
   -5.8961   -0.2264   -6.4011 C   0  0  0  0  0  0  0  0  0  0  0  0
   -5.9267    0.5405   -7.5271 F   0  0  0  0  0  0  0  0  0  0  0  0
   -6.7736   -1.2442   -6.6190 F   0  0  0  0  0  0  0  0  0  0  0  0
   -6.4465    0.5372   -5.4167 F   0  0  0  0  0  0  0  0  0  0  0  0
   -4.3052   -1.4520   -4.8534 C   0  0  0  0  0  0  0  0  0  0  0  0
    0.4086   -2.6807   -0.7120 O   0  0  0  0  0  0  0  0  0  0  0  0
    3.0832   -1.1831   -0.4547 C   0  0  0  0  0  0  0  0  0  0  0  0
    1.1463    0.2931   -2.6699 H   0  0  0  0  0  0  0  0  0  0  0  0
    0.7704   -1.1647   -1.8843 H   0  0  0  0  0  0  0  0  0  0  0  0
    5.1989    1.6443   -1.7293 H   0  0  0  0  0  0  0  0  0  0  0  0
    1.4741   -4.6035    1.7080 H   0  0  0  0  0  0  0  0  0  0  0  0
   -1.0577   -5.1589    0.8407 H   0  0  0  0  0  0  0  0  0  0  0  0
   -2.5188   -3.9785   -1.2736 H   0  0  0  0  0  0  0  0  0  0  0  0
   -3.6736   -2.6609   -2.6780 H   0  0  0  0  0  0  0  0  0  0  0  0
   -0.9460   -1.9333   -5.1402 H   0  0  0  0  0  0  0  0  0  0  0  0
   -1.3049   -0.6688   -7.1813 H   0  0  0  0  0  0  0  0  0  0  0  0
   -3.5581    0.1380   -7.7900 H   0  0  0  0  0  0  0  0  0  0  0  0
   -5.1579   -1.6632   -4.2107 H   0  0  0  0  0  0  0  0  0  0  0  0
  1  2  1  0  0  0  0
  1 30  1  0  0  0  0
  1 31  1  0  0  0  0
  2  3  1  0  0  0  0
  2 29  2  0  0  0  0
  3  4  2  0  0  0  0
  4  5  1  0  0  0  0
  4 32  1  0  0  0  0
  5  6  2  0  0  0  0
  6  7  1  0  0  0  0
  6 29  1  0  0  0  0
  7  8  1  0  0  0  0
  8  9  2  0  0  0  0
  9 10  1  0  0  0  0
  9 29  1  0  0  0  0
 10 11  2  0  0  0  0
 10 28  1  0  0  0  0
 11 12  1  0  0  0  0
 11 33  1  0  0  0  0
 12 13  2  0  0  0  0
 12 34  1  0  0  0  0
 13 14  1  0  0  0  0
 13 28  1  0  0  0  0
 14 15  1  0  0  0  0
 14 35  1  0  0  0  0
 15 16  2  0  0  0  0
 15 17  1  0  0  0  0
 17 18  1  0  0  0  0
 17 36  1  0  0  0  0
 18 19  1  0  0  0  0
 18 27  2  0  0  0  0
 19 20  2  0  0  0  0
 19 37  1  0  0  0  0
 20 21  1  0  0  0  0
 20 38  1  0  0  0  0
 21 22  2  0  0  0  0
 21 39  1  0  0  0  0
 22 23  1  0  0  0  0
 22 27  1  0  0  0  0
 23 24  1  0  0  0  0
 23 25  1  0  0  0  0
 23 26  1  0  0  0  0
 27 40  1  0  0  0  0
M  END
$$$$
