CHEMBL3970053
 OpenBabel04072215373D

 69 71  0  0  0  0  0  0  0  0999 V2000
    1.5418    2.3301   -8.1329 C   0  0  0  0  0  0  0  0  0  0  0  0
    2.6071    1.4002   -7.9265 O   0  0  0  0  0  0  0  0  0  0  0  0
    3.4845    1.7729   -6.9523 C   0  0  0  0  0  0  0  0  0  0  0  0
    3.4053    2.7999   -6.2918 O   0  0  0  0  0  0  0  0  0  0  0  0
    4.5675    0.7275   -6.8128 C   0  0  0  0  0  0  0  0  0  0  0  0
    5.5806    1.1099   -5.7325 C   0  0  0  0  0  0  0  0  0  0  0  0
    6.6865    0.0632   -5.5875 C   0  0  0  0  0  0  0  0  0  0  0  0
    7.6953    0.4747   -4.5187 C   0  0  0  0  0  0  0  0  0  0  0  0
    8.9628   -0.7642   -4.2694 S   0  0  3  0  0  0  0  0  0  0  0  0
    9.9271   -0.0216   -2.9638 C   0  0  0  0  0  0  0  0  0  0  0  0
    8.2979   -1.9237   -3.7068 O   0  0  0  0  0  0  0  0  0  0  0  0
    9.8335   -0.8081   -5.5461 N   0  0  0  0  0  0  0  0  0  0  0  0
   10.9222   -1.7011   -5.6311 C   0  0  0  0  0  0  0  0  0  0  0  0
   11.5069   -2.1138   -4.6342 O   0  0  0  0  0  0  0  0  0  0  0  0
   11.4976   -2.1025   -6.9420 C   0  0  0  0  0  0  0  0  0  0  0  0
   10.9579   -1.6483   -8.1341 C   0  0  0  0  0  0  0  0  0  0  0  0
   11.4739   -1.9389   -9.3586 N   0  0  0  0  0  0  0  0  0  0  0  0
   12.5693   -2.7261   -9.4061 C   0  0  0  0  0  0  0  0  0  0  0  0
   13.1211   -2.9022  -10.6735 N   0  0  0  0  0  0  0  0  0  0  0  0
   13.1641   -3.2587   -8.2549 C   0  0  0  0  0  0  0  0  0  0  0  0
   14.2938   -4.1393   -8.3259 C   0  0  0  0  0  0  0  0  0  0  0  0
   15.2170   -4.9014   -8.4313 C   0  0  0  0  0  0  0  0  0  0  0  0
   16.3090   -5.8086   -8.6153 C   0  0  0  0  0  0  0  0  0  0  0  0
   17.5843   -5.3055   -8.8758 C   0  0  0  0  0  0  0  0  0  0  0  0
   18.6393   -6.1839   -9.0971 C   0  0  0  0  0  0  0  0  0  0  0  0
   18.4228   -7.5618   -9.0522 C   0  0  0  0  0  0  0  0  0  0  0  0
   17.1557   -8.0850   -8.7722 C   0  0  0  0  0  0  0  0  0  0  0  0
   16.8904   -9.4768   -8.7079 N   0  0  0  0  0  0  0  0  0  0  0  0
   17.8510  -10.4755   -8.6659 C   0  0  0  0  0  0  0  0  0  0  0  0
   19.0648  -10.3061   -8.6006 O   0  0  0  0  0  0  0  0  0  0  0  0
   17.3639  -11.8836   -8.6427 C   0  0  0  0  0  0  0  0  0  0  0  0
   16.2033  -12.3023   -9.3017 C   0  0  0  0  0  0  0  0  0  0  0  0
   15.8570  -13.6572   -9.2948 C   0  0  0  0  0  0  0  0  0  0  0  0
   16.6576  -14.5922   -8.6303 C   0  0  0  0  0  0  0  0  0  0  0  0
   17.8154  -14.1848   -7.9623 C   0  0  0  0  0  0  0  0  0  0  0  0
   18.6977  -15.1634   -7.2453 C   0  0  0  0  0  0  0  0  0  0  0  0
   18.1654  -12.8300   -7.9843 C   0  0  0  0  0  0  0  0  0  0  0  0
   16.0943   -7.1940   -8.5630 C   0  0  0  0  0  0  0  0  0  0  0  0
   12.6175   -2.9372   -7.0108 C   0  0  0  0  0  0  0  0  0  0  0  0
    0.8969    1.9386   -8.9260 H   0  0  0  0  0  0  0  0  0  0  0  0
    1.9347    3.2993   -8.4554 H   0  0  0  0  0  0  0  0  0  0  0  0
    0.9428    2.4374   -7.2234 H   0  0  0  0  0  0  0  0  0  0  0  0
    5.0746    0.6294   -7.7790 H   0  0  0  0  0  0  0  0  0  0  0  0
    4.0930   -0.2264   -6.5575 H   0  0  0  0  0  0  0  0  0  0  0  0
    5.0623    1.2323   -4.7728 H   0  0  0  0  0  0  0  0  0  0  0  0
    6.0251    2.0832   -5.9751 H   0  0  0  0  0  0  0  0  0  0  0  0
    7.1974   -0.0704   -6.5481 H   0  0  0  0  0  0  0  0  0  0  0  0
    6.2432   -0.9054   -5.3275 H   0  0  0  0  0  0  0  0  0  0  0  0
    7.1937    0.6084   -3.5536 H   0  0  0  0  0  0  0  0  0  0  0  0
    8.1924    1.4131   -4.7849 H   0  0  0  0  0  0  0  0  0  0  0  0
    9.2874    0.1036   -2.0875 H   0  0  0  0  0  0  0  0  0  0  0  0
   10.3017    0.9472   -3.3008 H   0  0  0  0  0  0  0  0  0  0  0  0
   10.7582   -0.6798   -2.7074 H   0  0  0  0  0  0  0  0  0  0  0  0
   10.0778   -1.0104   -8.1570 H   0  0  0  0  0  0  0  0  0  0  0  0
   12.4857   -2.5014  -11.3568 H   0  0  0  0  0  0  0  0  0  0  0  0
   13.3688   -3.8645  -10.8684 H   0  0  0  0  0  0  0  0  0  0  0  0
   17.7643   -4.2347   -8.9156 H   0  0  0  0  0  0  0  0  0  0  0  0
   19.6364   -5.8051   -9.3109 H   0  0  0  0  0  0  0  0  0  0  0  0
   19.2718   -8.2052   -9.2572 H   0  0  0  0  0  0  0  0  0  0  0  0
   15.9265   -9.7479   -8.5701 H   0  0  0  0  0  0  0  0  0  0  0  0
   15.5879  -11.6044   -9.8605 H   0  0  0  0  0  0  0  0  0  0  0  0
   14.9689  -13.9950   -9.8247 H   0  0  0  0  0  0  0  0  0  0  0  0
   16.3759  -15.6433   -8.6470 H   0  0  0  0  0  0  0  0  0  0  0  0
   18.2667  -16.1694   -7.2437 H   0  0  0  0  0  0  0  0  0  0  0  0
   18.8282  -14.8550   -6.2024 H   0  0  0  0  0  0  0  0  0  0  0  0
   19.6791  -15.2130   -7.7282 H   0  0  0  0  0  0  0  0  0  0  0  0
   19.0815  -12.5050   -7.4914 H   0  0  0  0  0  0  0  0  0  0  0  0
   15.0961   -7.5655   -8.3460 H   0  0  0  0  0  0  0  0  0  0  0  0
   13.0688   -3.3267   -6.1005 H   0  0  0  0  0  0  0  0  0  0  0  0
  1  2  1  0  0  0  0
  1 40  1  0  0  0  0
  1 41  1  0  0  0  0
  1 42  1  0  0  0  0
  2  3  1  0  0  0  0
  3  4  2  0  0  0  0
  3  5  1  0  0  0  0
  5  6  1  0  0  0  0
  5 43  1  0  0  0  0
  5 44  1  0  0  0  0
  6  7  1  0  0  0  0
  6 45  1  0  0  0  0
  6 46  1  0  0  0  0
  7  8  1  0  0  0  0
  7 47  1  0  0  0  0
  7 48  1  0  0  0  0
  8  9  1  0  0  0  0
  8 49  1  0  0  0  0
  8 50  1  0  0  0  0
  9 10  1  0  0  0  0
  9 11  2  0  0  0  0
  9 12  2  0  0  0  0
 10 51  1  0  0  0  0
 10 52  1  0  0  0  0
 10 53  1  0  0  0  0
 12 13  1  0  0  0  0
 13 14  2  0  0  0  0
 13 15  1  0  0  0  0
 15 16  1  0  0  0  0
 15 39  2  0  0  0  0
 16 17  2  0  0  0  0
 16 54  1  0  0  0  0
 17 18  1  0  0  0  0
 18 19  1  0  0  0  0
 18 20  2  0  0  0  0
 19 55  1  0  0  0  0
 19 56  1  0  0  0  0
 20 21  1  0  0  0  0
 20 39  1  0  0  0  0
 21 22  3  0  0  0  0
 22 23  1  0  0  0  0
 23 24  1  0  0  0  0
 23 38  2  0  0  0  0
 24 25  2  0  0  0  0
 24 57  1  0  0  0  0
 25 26  1  0  0  0  0
 25 58  1  0  0  0  0
 26 27  2  0  0  0  0
 26 59  1  0  0  0  0
 27 28  1  0  0  0  0
 27 38  1  0  0  0  0
 28 29  1  0  0  0  0
 28 60  1  0  0  0  0
 29 30  2  0  0  0  0
 29 31  1  0  0  0  0
 31 32  1  0  0  0  0
 31 37  2  0  0  0  0
 32 33  2  0  0  0  0
 32 61  1  0  0  0  0
 33 34  1  0  0  0  0
 33 62  1  0  0  0  0
 34 35  2  0  0  0  0
 34 63  1  0  0  0  0
 35 36  1  0  0  0  0
 35 37  1  0  0  0  0
 36 64  1  0  0  0  0
 36 65  1  0  0  0  0
 36 66  1  0  0  0  0
 37 67  1  0  0  0  0
 38 68  1  0  0  0  0
 39 69  1  0  0  0  0
M  END
$$$$
