CHEMBL522133
 OpenBabel04072215383D

 45 48  0  0  0  0  0  0  0  0999 V2000
    0.7370   -0.6399   -0.1521 F   0  0  0  0  0  0  0  0  0  0  0  0
    0.4052   -0.0803   -1.3519 C   0  0  0  0  0  0  0  0  0  0  0  0
   -0.9199    0.2130   -1.2556 F   0  0  0  0  0  0  0  0  0  0  0  0
    1.0654    1.1093   -1.3883 F   0  0  0  0  0  0  0  0  0  0  0  0
    0.7358   -0.9643   -2.5252 C   0  0  0  0  0  0  0  0  0  0  0  0
    1.3979   -2.1900   -2.3142 C   0  0  0  0  0  0  0  0  0  0  0  0
    1.7536   -3.0158   -3.3951 C   0  0  0  0  0  0  0  0  0  0  0  0
    2.4427   -4.2320   -3.1462 N   0  0  0  0  0  0  0  0  0  0  0  0
    2.9352   -5.1451   -4.0494 C   0  0  0  0  0  0  0  0  0  0  0  0
    3.4078   -6.1819   -3.2784 C   0  0  0  0  0  0  0  0  0  0  0  0
    4.0054   -7.4329   -3.7217 C   0  0  0  0  0  0  0  0  0  0  0  0
    5.0547   -7.9343   -2.9203 C   0  0  0  0  0  0  0  0  0  0  0  0
    5.6822   -9.1407   -3.2161 C   0  0  0  0  0  0  0  0  0  0  0  0
    5.2810   -9.8583   -4.3305 C   0  0  0  0  0  0  0  0  0  0  0  0
    4.2501   -9.3726   -5.1404 C   0  0  0  0  0  0  0  0  0  0  0  0
    3.5554   -8.1820   -4.8422 C   0  0  0  0  0  0  0  0  0  0  0  0
    2.5389   -7.7075   -5.7061 N   0  0  0  0  0  0  0  0  0  0  0  0
    1.7308   -8.6905   -6.4242 C   0  0  0  0  0  0  0  0  0  0  0  0
    0.7373   -7.9875   -7.3169 C   0  0  0  0  0  0  0  0  0  0  0  0
    1.1755   -7.2479   -8.4213 C   0  0  0  0  0  0  0  0  0  0  0  0
    0.2304   -6.6727   -9.2554 C   0  0  0  0  0  0  0  0  0  0  0  0
   -1.1014   -6.7759   -9.0622 N   0  0  0  0  0  0  0  0  0  0  0  0
   -1.5054   -7.4879   -7.9889 C   0  0  0  0  0  0  0  0  0  0  0  0
   -0.6383   -8.1000   -7.0968 C   0  0  0  0  0  0  0  0  0  0  0  0
    3.2766   -5.8461   -1.9572 N   0  0  0  0  0  0  0  0  0  0  0  0
    2.6993   -4.6565   -1.8866 N   0  0  0  0  0  0  0  0  0  0  0  0
    1.4237   -2.6283   -4.6951 C   0  0  0  0  0  0  0  0  0  0  0  0
    0.7578   -1.4222   -4.9110 C   0  0  0  0  0  0  0  0  0  0  0  0
    0.4218   -0.5907   -3.8372 C   0  0  0  0  0  0  0  0  0  0  0  0
   -0.3744    0.8956   -4.2019 Cl  0  0  0  0  0  0  0  0  0  0  0  0
    1.6436   -2.4879   -1.2922 H   0  0  0  0  0  0  0  0  0  0  0  0
    2.9061   -4.9973   -5.1171 H   0  0  0  0  0  0  0  0  0  0  0  0
    5.3914   -7.3749   -2.0480 H   0  0  0  0  0  0  0  0  0  0  0  0
    6.4845   -9.5094   -2.5830 H   0  0  0  0  0  0  0  0  0  0  0  0
    5.7701  -10.7965   -4.5803 H   0  0  0  0  0  0  0  0  0  0  0  0
    4.0054   -9.9636   -6.0168 H   0  0  0  0  0  0  0  0  0  0  0  0
    1.9275   -7.0606   -5.2159 H   0  0  0  0  0  0  0  0  0  0  0  0
    1.2050   -9.3289   -5.7038 H   0  0  0  0  0  0  0  0  0  0  0  0
    2.3344   -9.3349   -7.0716 H   0  0  0  0  0  0  0  0  0  0  0  0
    2.2341   -7.1353   -8.6347 H   0  0  0  0  0  0  0  0  0  0  0  0
    0.5282   -6.1042  -10.1319 H   0  0  0  0  0  0  0  0  0  0  0  0
   -2.5821   -7.5638   -7.8640 H   0  0  0  0  0  0  0  0  0  0  0  0
   -1.0358   -8.6677   -6.2620 H   0  0  0  0  0  0  0  0  0  0  0  0
    1.6632   -3.2399   -5.5623 H   0  0  0  0  0  0  0  0  0  0  0  0
    0.5024   -1.1307   -5.9289 H   0  0  0  0  0  0  0  0  0  0  0  0
  1  2  1  0  0  0  0
  2  3  1  0  0  0  0
  2  4  1  0  0  0  0
  2  5  1  0  0  0  0
  5  6  1  0  0  0  0
  5 29  2  0  0  0  0
  6  7  2  0  0  0  0
  6 31  1  0  0  0  0
  7  8  1  0  0  0  0
  7 27  1  0  0  0  0
  8  9  1  0  0  0  0
  8 26  1  0  0  0  0
  9 10  2  0  0  0  0
  9 32  1  0  0  0  0
 10 11  1  0  0  0  0
 10 25  1  0  0  0  0
 11 12  1  0  0  0  0
 11 16  2  0  0  0  0
 12 13  2  0  0  0  0
 12 33  1  0  0  0  0
 13 14  1  0  0  0  0
 13 34  1  0  0  0  0
 14 15  2  0  0  0  0
 14 35  1  0  0  0  0
 15 16  1  0  0  0  0
 15 36  1  0  0  0  0
 16 17  1  0  0  0  0
 17 18  1  0  0  0  0
 17 37  1  0  0  0  0
 18 19  1  0  0  0  0
 18 38  1  0  0  0  0
 18 39  1  0  0  0  0
 19 20  1  0  0  0  0
 19 24  2  0  0  0  0
 20 21  2  0  0  0  0
 20 40  1  0  0  0  0
 21 22  1  0  0  0  0
 21 41  1  0  0  0  0
 22 23  2  0  0  0  0
 23 24  1  0  0  0  0
 23 42  1  0  0  0  0
 24 43  1  0  0  0  0
 25 26  2  0  0  0  0
 27 28  2  0  0  0  0
 27 44  1  0  0  0  0
 28 29  1  0  0  0  0
 28 45  1  0  0  0  0
 29 30  1  0  0  0  0
M  END
$$$$
