CHEMBL1164957
 OpenBabel04072215363D

 53 57  0  0  0  0  0  0  0  0999 V2000
   -2.3821   -2.1606    0.5163 C   0  0  0  0  0  0  0  0  0  0  0  0
   -1.4453   -1.1190   -0.0087 C   0  0  0  0  0  0  0  0  0  0  0  0
   -0.3252   -1.4452   -0.7601 C   0  0  0  0  0  0  0  0  0  0  0  0
    0.4995   -0.4163   -1.2067 C   0  0  0  0  0  0  0  0  0  0  0  0
    0.1806    0.9037   -0.8949 C   0  0  0  0  0  0  0  0  0  0  0  0
   -0.9670    1.1481   -0.1508 C   0  0  0  0  0  0  0  0  0  0  0  0
   -1.4592    2.4864    0.1482 C   0  0  0  0  0  0  0  0  0  0  0  0
   -1.3193    3.5312   -0.7513 N   0  0  0  0  0  0  0  0  0  0  0  0
   -2.0684    4.5972   -0.3262 C   0  0  0  0  0  0  0  0  0  0  0  0
   -2.2757    5.8387   -1.1345 C   0  0  0  0  0  0  0  0  0  0  0  0
   -3.4956    5.8080   -2.0419 C   0  0  0  0  0  0  0  0  0  0  0  0
   -4.7775    5.5712   -1.5168 C   0  0  0  0  0  0  0  0  0  0  0  0
   -5.9106    5.6158   -2.3333 C   0  0  0  0  0  0  0  0  0  0  0  0
   -5.7829    5.9217   -3.6866 C   0  0  0  0  0  0  0  0  0  0  0  0
   -4.5218    6.1899   -4.2284 C   0  0  0  0  0  0  0  0  0  0  0  0
   -4.4495    6.5660   -5.6678 C   0  0  0  0  0  0  0  0  0  0  0  0
   -3.3828    7.3225   -6.0682 N   0  0  0  0  0  0  0  0  0  0  0  0
   -5.3307    6.2625   -6.4620 O   0  0  0  0  0  0  0  0  0  0  0  0
   -3.3810    6.1155   -3.4104 C   0  0  0  0  0  0  0  0  0  0  0  0
   -2.5825    4.3415    0.8535 N   0  0  0  0  0  0  0  0  0  0  0  0
   -2.3030    3.0100    1.1218 C   0  0  0  0  0  0  0  0  0  0  0  0
   -3.0621    2.3178    2.1613 C   0  0  0  0  0  0  0  0  0  0  0  0
   -4.3830    2.7350    2.3287 C   0  0  0  0  0  0  0  0  0  0  0  0
   -5.2380    2.1122    3.2325 C   0  0  0  0  0  0  0  0  0  0  0  0
   -4.8168    1.0425    3.9909 C   0  0  0  0  0  0  0  0  0  0  0  0
   -5.7146    0.4707    4.8104 N   0  0  0  0  0  0  0  0  0  0  0  0
   -5.3263   -0.5994    5.5252 C   0  0  0  0  0  0  0  0  0  0  0  0
   -4.0550   -1.1350    5.4641 C   0  0  0  0  0  0  0  0  0  0  0  0
   -3.1207   -0.5247    4.6258 C   0  0  0  0  0  0  0  0  0  0  0  0
   -3.4828    0.5974    3.8555 C   0  0  0  0  0  0  0  0  0  0  0  0
   -2.6005    1.2593    2.9561 C   0  0  0  0  0  0  0  0  0  0  0  0
   -1.7661    0.1577    0.2873 N   0  0  0  0  0  0  0  0  0  0  0  0
   -2.0802   -3.1686    0.2193 H   0  0  0  0  0  0  0  0  0  0  0  0
   -3.3902   -1.9742    0.1323 H   0  0  0  0  0  0  0  0  0  0  0  0
   -2.4099   -2.1159    1.6098 H   0  0  0  0  0  0  0  0  0  0  0  0
   -0.0955   -2.4777   -1.0009 H   0  0  0  0  0  0  0  0  0  0  0  0
    1.3808   -0.6430   -1.8007 H   0  0  0  0  0  0  0  0  0  0  0  0
    0.8221    1.7078   -1.2363 H   0  0  0  0  0  0  0  0  0  0  0  0
   -0.8659    3.4675   -1.6504 H   0  0  0  0  0  0  0  0  0  0  0  0
   -1.3743    6.0374   -1.7264 H   0  0  0  0  0  0  0  0  0  0  0  0
   -2.3919    6.6920   -0.4533 H   0  0  0  0  0  0  0  0  0  0  0  0
   -4.9039    5.3526   -0.4572 H   0  0  0  0  0  0  0  0  0  0  0  0
   -6.8962    5.4273   -1.9131 H   0  0  0  0  0  0  0  0  0  0  0  0
   -6.6699    5.9695   -4.3152 H   0  0  0  0  0  0  0  0  0  0  0  0
   -2.7975    7.8170   -5.4118 H   0  0  0  0  0  0  0  0  0  0  0  0
   -3.4439    7.6962   -7.0076 H   0  0  0  0  0  0  0  0  0  0  0  0
   -2.3985    6.2920   -3.8376 H   0  0  0  0  0  0  0  0  0  0  0  0
   -4.7757    3.5501    1.7188 H   0  0  0  0  0  0  0  0  0  0  0  0
   -6.2626    2.4587    3.3208 H   0  0  0  0  0  0  0  0  0  0  0  0
   -6.0946   -1.0281    6.1615 H   0  0  0  0  0  0  0  0  0  0  0  0
   -3.8034   -2.0096    6.0526 H   0  0  0  0  0  0  0  0  0  0  0  0
   -2.1181   -0.9391    4.5651 H   0  0  0  0  0  0  0  0  0  0  0  0
   -1.5748    0.9123    2.8618 H   0  0  0  0  0  0  0  0  0  0  0  0
  1  2  1  0  0  0  0
  1 33  1  0  0  0  0
  1 34  1  0  0  0  0
  1 35  1  0  0  0  0
  2  3  1  0  0  0  0
  2 32  2  0  0  0  0
  3  4  2  0  0  0  0
  3 36  1  0  0  0  0
  4  5  1  0  0  0  0
  4 37  1  0  0  0  0
  5  6  2  0  0  0  0
  5 38  1  0  0  0  0
  6  7  1  0  0  0  0
  6 32  1  0  0  0  0
  7  8  1  0  0  0  0
  7 21  2  0  0  0  0
  8  9  1  0  0  0  0
  8 39  1  0  0  0  0
  9 10  1  0  0  0  0
  9 20  2  0  0  0  0
 10 11  1  0  0  0  0
 10 40  1  0  0  0  0
 10 41  1  0  0  0  0
 11 12  1  0  0  0  0
 11 19  2  0  0  0  0
 12 13  2  0  0  0  0
 12 42  1  0  0  0  0
 13 14  1  0  0  0  0
 13 43  1  0  0  0  0
 14 15  2  0  0  0  0
 14 44  1  0  0  0  0
 15 16  1  0  0  0  0
 15 19  1  0  0  0  0
 16 17  1  0  0  0  0
 16 18  2  0  0  0  0
 17 45  1  0  0  0  0
 17 46  1  0  0  0  0
 19 47  1  0  0  0  0
 20 21  1  0  0  0  0
 21 22  1  0  0  0  0
 22 23  1  0  0  0  0
 22 31  2  0  0  0  0
 23 24  2  0  0  0  0
 23 48  1  0  0  0  0
 24 25  1  0  0  0  0
 24 49  1  0  0  0  0
 25 26  1  0  0  0  0
 25 30  2  0  0  0  0
 26 27  2  0  0  0  0
 27 28  1  0  0  0  0
 27 50  1  0  0  0  0
 28 29  2  0  0  0  0
 28 51  1  0  0  0  0
 29 30  1  0  0  0  0
 29 52  1  0  0  0  0
 30 31  1  0  0  0  0
 31 53  1  0  0  0  0
M  END
$$$$
