CHEMBL364000
 OpenBabel04072215373D

 50 52  0  0  0  0  0  0  0  0999 V2000
    2.2369   -1.8589    0.1555 C   0  0  0  0  0  0  0  0  0  0  0  0
    2.2424   -1.6522   -1.2944 N   0  0  0  0  0  0  0  0  0  0  0  0
    0.8744   -1.4147   -1.7641 C   0  0  0  0  0  0  0  0  0  0  0  0
    3.1182   -0.5383   -1.6960 C   0  0  0  0  0  0  0  0  0  0  0  0
    4.6019   -0.7587   -1.3729 C   0  0  0  0  0  0  0  0  0  0  0  0
    5.1479   -2.0240   -2.0305 C   0  0  0  0  0  0  0  0  0  0  0  0
    6.5481   -2.2189   -1.6366 N   0  0  0  0  0  0  0  0  0  0  0  0
    7.1959   -3.3572   -2.1475 C   0  0  0  0  0  0  0  0  0  0  0  0
    8.2356   -3.9663   -1.4445 C   0  0  0  0  0  0  0  0  0  0  0  0
    8.9410   -5.0382   -1.8757 N   0  0  0  0  0  0  0  0  0  0  0  0
    8.6250   -5.5077   -3.1061 C   0  0  0  0  0  0  0  0  0  0  0  0
    7.6662   -4.9497   -3.9496 C   0  0  0  0  0  0  0  0  0  0  0  0
    7.4329   -5.4733   -5.2999 C   0  0  0  0  0  0  0  0  0  0  0  0
    7.0253   -4.6932   -6.3791 C   0  0  0  0  0  0  0  0  0  0  0  0
    6.8538   -5.1825   -7.6308 N   0  0  0  0  0  0  0  0  0  0  0  0
    7.0964   -6.5085   -7.7598 C   0  0  0  0  0  0  0  0  0  0  0  0
    7.4764   -7.3258   -6.6976 C   0  0  0  0  0  0  0  0  0  0  0  0
    7.6731   -8.7069   -6.9036 N   0  0  0  0  0  0  0  0  0  0  0  0
    7.4976   -9.6993   -5.9139 C   0  0  0  0  0  0  0  0  0  0  0  0
    8.2578  -10.8748   -5.9483 C   0  0  0  0  0  0  0  0  0  0  0  0
    8.0479  -11.8882   -5.0072 C   0  0  0  0  0  0  0  0  0  0  0  0
    7.0571  -11.7481   -4.0360 C   0  0  0  0  0  0  0  0  0  0  0  0
    6.2784  -10.5957   -4.0106 C   0  0  0  0  0  0  0  0  0  0  0  0
    5.0332  -10.4267   -2.8346 Cl  0  0  0  0  0  0  0  0  0  0  0  0
    6.4907   -9.5830   -4.9425 C   0  0  0  0  0  0  0  0  0  0  0  0
    7.6604   -6.7998   -5.4659 N   0  0  0  0  0  0  0  0  0  0  0  0
    6.9533   -3.8560   -3.4320 C   0  0  0  0  0  0  0  0  0  0  0  0
    1.5650   -2.6817    0.4238 H   0  0  0  0  0  0  0  0  0  0  0  0
    1.9203   -0.9619    0.6985 H   0  0  0  0  0  0  0  0  0  0  0  0
    3.2263   -2.1556    0.5178 H   0  0  0  0  0  0  0  0  0  0  0  0
    0.2177   -2.2441   -1.4779 H   0  0  0  0  0  0  0  0  0  0  0  0
    0.8472   -1.3597   -2.8580 H   0  0  0  0  0  0  0  0  0  0  0  0
    0.4544   -0.4872   -1.3585 H   0  0  0  0  0  0  0  0  0  0  0  0
    2.7885    0.3998   -1.2314 H   0  0  0  0  0  0  0  0  0  0  0  0
    3.0359   -0.3969   -2.7823 H   0  0  0  0  0  0  0  0  0  0  0  0
    4.7630   -0.7877   -0.2892 H   0  0  0  0  0  0  0  0  0  0  0  0
    5.1720    0.1070   -1.7344 H   0  0  0  0  0  0  0  0  0  0  0  0
    5.0583   -1.9006   -3.1150 H   0  0  0  0  0  0  0  0  0  0  0  0
    4.5653   -2.9024   -1.7297 H   0  0  0  0  0  0  0  0  0  0  0  0
    6.6557   -2.1721   -0.6239 H   0  0  0  0  0  0  0  0  0  0  0  0
    8.5344   -3.6028   -0.4655 H   0  0  0  0  0  0  0  0  0  0  0  0
    9.2075   -6.3740   -3.4158 H   0  0  0  0  0  0  0  0  0  0  0  0
    6.8351   -3.6294   -6.2799 H   0  0  0  0  0  0  0  0  0  0  0  0
    6.9378   -6.9152   -8.7525 H   0  0  0  0  0  0  0  0  0  0  0  0
    8.4859   -8.8574   -7.4911 H   0  0  0  0  0  0  0  0  0  0  0  0
    9.0316  -11.0105   -6.6993 H   0  0  0  0  0  0  0  0  0  0  0  0
    8.6553  -12.7891   -5.0341 H   0  0  0  0  0  0  0  0  0  0  0  0
    6.8918  -12.5382   -3.3096 H   0  0  0  0  0  0  0  0  0  0  0  0
    5.8608   -8.6976   -4.9143 H   0  0  0  0  0  0  0  0  0  0  0  0
    6.1905   -3.3939   -4.0465 H   0  0  0  0  0  0  0  0  0  0  0  0
  1  2  1  0  0  0  0
  1 28  1  0  0  0  0
  1 29  1  0  0  0  0
  1 30  1  0  0  0  0
  2  3  1  0  0  0  0
  2  4  1  0  0  0  0
  3 31  1  0  0  0  0
  3 32  1  0  0  0  0
  3 33  1  0  0  0  0
  4  5  1  0  0  0  0
  4 34  1  0  0  0  0
  4 35  1  0  0  0  0
  5  6  1  0  0  0  0
  5 36  1  0  0  0  0
  5 37  1  0  0  0  0
  6  7  1  0  0  0  0
  6 38  1  0  0  0  0
  6 39  1  0  0  0  0
  7  8  1  0  0  0  0
  7 40  1  0  0  0  0
  8  9  1  0  0  0  0
  8 27  2  0  0  0  0
  9 10  2  0  0  0  0
  9 41  1  0  0  0  0
 10 11  1  0  0  0  0
 11 12  2  0  0  0  0
 11 42  1  0  0  0  0
 12 13  1  0  0  0  0
 12 27  1  0  0  0  0
 13 14  1  0  0  0  0
 13 26  2  0  0  0  0
 14 15  2  0  0  0  0
 14 43  1  0  0  0  0
 15 16  1  0  0  0  0
 16 17  2  0  0  0  0
 16 44  1  0  0  0  0
 17 18  1  0  0  0  0
 17 26  1  0  0  0  0
 18 19  1  0  0  0  0
 18 45  1  0  0  0  0
 19 20  1  0  0  0  0
 19 25  2  0  0  0  0
 20 21  2  0  0  0  0
 20 46  1  0  0  0  0
 21 22  1  0  0  0  0
 21 47  1  0  0  0  0
 22 23  2  0  0  0  0
 22 48  1  0  0  0  0
 23 24  1  0  0  0  0
 23 25  1  0  0  0  0
 25 49  1  0  0  0  0
 27 50  1  0  0  0  0
M  END
$$$$
