CHEMBL270828
 OpenBabel04072215363D

 47 52  0  0  0  0  0  0  0  0999 V2000
    4.1762   -0.4316    0.5499 C   0  0  0  0  0  0  0  0  0  0  0  0
    3.4785   -0.0416   -0.7398 C   0  0  0  0  0  0  0  0  0  0  0  0
    4.0402    1.1330   -1.4002 N   0  0  0  0  0  0  0  0  0  0  0  0
    3.6208    2.4489   -1.0807 C   0  0  0  0  0  0  0  0  0  0  0  0
    2.8909    2.9455    0.0158 C   0  0  0  0  0  0  0  0  0  0  0  0
    2.4952    4.2933    0.0011 C   0  0  0  0  0  0  0  0  0  0  0  0
    2.8363    5.1341   -1.0502 C   0  0  0  0  0  0  0  0  0  0  0  0
    3.5648    4.6397   -2.1285 C   0  0  0  0  0  0  0  0  0  0  0  0
    3.9354    3.2849   -2.1604 C   0  0  0  0  0  0  0  0  0  0  0  0
    4.4706    2.3951   -3.0774 C   0  0  0  0  0  0  0  0  0  0  0  0
    4.4747    2.6631   -4.4581 C   0  0  0  0  0  0  0  0  0  0  0  0
    4.4346    1.5312   -5.2978 C   0  0  0  0  0  0  0  0  0  0  0  0
    4.5316    0.2092   -4.8333 C   0  0  0  0  0  0  0  0  0  0  0  0
    5.1328    0.1183   -3.5321 C   0  0  0  0  0  0  0  0  0  0  0  0
    4.6963    1.1186   -2.6369 C   0  0  0  0  0  0  0  0  0  0  0  0
    6.6408   -0.3639   -3.6179 C   0  0  0  0  0  0  0  0  0  0  0  0
    7.2276   -0.4227   -5.0899 C   0  0  0  0  0  0  0  0  0  0  0  0
    6.2389   -1.1710   -5.9111 C   0  0  0  0  0  0  0  0  0  0  0  0
    6.4149   -2.3245   -6.5517 N   0  0  0  0  0  0  0  0  0  0  0  0
    5.1404   -2.7580   -6.7295 N   0  0  0  0  0  0  0  0  0  0  0  0
    4.9028   -4.0673   -7.2872 C   0  0  0  0  0  0  0  0  0  0  0  0
    4.1983   -1.9562   -6.1333 C   0  0  0  0  0  0  0  0  0  0  0  0
    4.8855   -0.8291   -5.7583 C   0  0  0  0  0  0  0  0  0  0  0  0
    4.4455    2.0131   -6.6655 C   0  0  0  0  0  0  0  0  0  0  0  0
    4.4420    1.4442   -7.7557 O   0  0  0  0  0  0  0  0  0  0  0  0
    4.5116    3.3844   -6.5509 N   0  0  0  0  0  0  0  0  0  0  0  0
    4.4575    3.9197   -5.2015 C   0  0  0  0  0  0  0  0  0  0  0  0
    3.6791   -1.3019    0.9921 H   0  0  0  0  0  0  0  0  0  0  0  0
    4.1483    0.3756    1.2878 H   0  0  0  0  0  0  0  0  0  0  0  0
    5.2241   -0.6917    0.3698 H   0  0  0  0  0  0  0  0  0  0  0  0
    2.4212    0.1783   -0.5360 H   0  0  0  0  0  0  0  0  0  0  0  0
    3.4903   -0.8723   -1.4486 H   0  0  0  0  0  0  0  0  0  0  0  0
    2.5872    2.3079    0.8380 H   0  0  0  0  0  0  0  0  0  0  0  0
    1.8950    4.6863    0.8189 H   0  0  0  0  0  0  0  0  0  0  0  0
    2.5156    6.1736   -1.0492 H   0  0  0  0  0  0  0  0  0  0  0  0
    3.8050    5.3116   -2.9480 H   0  0  0  0  0  0  0  0  0  0  0  0
    6.6925   -1.3688   -3.1852 H   0  0  0  0  0  0  0  0  0  0  0  0
    7.2725    0.3078   -3.0263 H   0  0  0  0  0  0  0  0  0  0  0  0
    8.2216   -0.8753   -5.1244 H   0  0  0  0  0  0  0  0  0  0  0  0
    7.3194    0.5985   -5.4929 H   0  0  0  0  0  0  0  0  0  0  0  0
    5.7573   -4.3593   -7.9027 H   0  0  0  0  0  0  0  0  0  0  0  0
    3.9990   -4.0292   -7.9003 H   0  0  0  0  0  0  0  0  0  0  0  0
    4.7740   -4.7691   -6.4591 H   0  0  0  0  0  0  0  0  0  0  0  0
    3.1784   -2.2797   -5.9876 H   0  0  0  0  0  0  0  0  0  0  0  0
    4.6145    3.9482   -7.3749 H   0  0  0  0  0  0  0  0  0  0  0  0
    3.5232    4.4698   -5.0865 H   0  0  0  0  0  0  0  0  0  0  0  0
    5.3364    4.5349   -5.0035 H   0  0  0  0  0  0  0  0  0  0  0  0
  1  2  1  0  0  0  0
  1 28  1  0  0  0  0
  1 29  1  0  0  0  0
  1 30  1  0  0  0  0
  2  3  1  0  0  0  0
  2 31  1  0  0  0  0
  2 32  1  0  0  0  0
  3  4  1  0  0  0  0
  3 15  1  0  0  0  0
  4  5  1  0  0  0  0
  4  9  2  0  0  0  0
  5  6  2  0  0  0  0
  5 33  1  0  0  0  0
  6  7  1  0  0  0  0
  6 34  1  0  0  0  0
  7  8  2  0  0  0  0
  7 35  1  0  0  0  0
  8  9  1  0  0  0  0
  8 36  1  0  0  0  0
  9 10  1  0  0  0  0
 10 11  1  0  0  0  0
 10 15  2  0  0  0  0
 11 12  2  0  0  0  0
 11 27  1  0  0  0  0
 12 13  1  0  0  0  0
 12 24  1  0  0  0  0
 13 14  2  0  0  0  0
 13 23  1  0  0  0  0
 14 15  1  0  0  0  0
 14 16  1  0  0  0  0
 16 17  1  0  0  0  0
 16 37  1  0  0  0  0
 16 38  1  0  0  0  0
 17 18  1  0  0  0  0
 17 39  1  0  0  0  0
 17 40  1  0  0  0  0
 18 19  2  0  0  0  0
 18 23  1  0  0  0  0
 19 20  1  0  0  0  0
 20 21  1  0  0  0  0
 20 22  1  0  0  0  0
 21 41  1  0  0  0  0
 21 42  1  0  0  0  0
 21 43  1  0  0  0  0
 22 23  2  0  0  0  0
 22 44  1  0  0  0  0
 24 25  2  0  0  0  0
 24 26  1  0  0  0  0
 26 27  1  0  0  0  0
 26 45  1  0  0  0  0
 27 46  1  0  0  0  0
 27 47  1  0  0  0  0
M  END
$$$$
