CHEMBL3936588
 OpenBabel04072215373D

 72 76  0  0  1  0  0  0  0  0999 V2000
   -8.2192   16.3123    2.0625 C   0  0  0  0  0  0  0  0  0  0  0  0
   -7.9258   15.0501    1.3028 C   0  0  0  0  0  0  0  0  0  0  0  0
   -7.5529   15.1301   -0.0410 C   0  0  0  0  0  0  0  0  0  0  0  0
   -7.2503   13.9734   -0.7474 C   0  0  0  0  0  0  0  0  0  0  0  0
   -7.3301   12.7318   -0.1248 C   0  0  0  0  0  0  0  0  0  0  0  0
   -6.8887   11.6928   -0.8447 F   0  0  0  0  0  0  0  0  0  0  0  0
   -7.7553   12.6006    1.2060 C   0  0  0  0  0  0  0  0  0  0  0  0
   -7.9297   11.3562    1.8760 N   0  0  0  0  0  0  0  0  0  0  0  0
   -8.0642   10.1196    1.2637 C   0  0  0  0  0  0  0  0  0  0  0  0
   -8.0743    9.9162    0.0535 O   0  0  0  0  0  0  0  0  0  0  0  0
   -8.2715    9.0920    2.1739 N   0  0  0  0  0  0  0  0  0  0  0  0
   -8.4481    7.7695    1.6783 C   0  0  0  0  0  0  0  0  0  0  0  0
   -7.5069    7.1626    0.8365 C   0  0  0  0  0  0  0  0  0  0  0  0
   -7.7300    5.8665    0.3512 C   0  0  0  0  0  0  0  0  0  0  0  0
   -8.9009    5.1803    0.6903 C   0  0  0  0  0  0  0  0  0  0  0  0
   -9.0546    3.9152    0.1571 O   0  0  0  0  0  0  0  0  0  0  0  0
   -9.7154    2.9477    0.8907 C   0  0  0  0  0  0  0  0  0  0  0  0
   -9.6649    2.8709    2.2827 C   0  0  0  0  0  0  0  0  0  0  0  0
  -10.3679    1.8774    2.9319 C   0  0  0  0  0  0  0  0  0  0  0  0
  -11.0771    0.9120    2.3266 N   0  0  0  0  0  0  0  0  0  0  0  0
  -11.0847    0.9450    0.9692 C   0  0  0  0  0  0  0  0  0  0  0  0
  -11.7546   -0.0001    0.1432 C   0  0  0  0  0  0  0  0  0  0  0  0
  -11.6309    0.2753   -1.2029 C   0  0  0  0  0  0  0  0  0  0  0  0
  -12.2123   -0.4843   -2.3049 C   0  0  0  0  0  0  0  0  0  0  0  0
  -12.9152   -1.4783   -2.1331 O   0  0  0  0  0  0  0  0  0  0  0  0
  -11.9203   -0.0083   -3.5611 N   0  0  0  0  0  0  0  0  0  0  0  0
  -12.4204   -0.6035   -4.7831 C   0  0  0  0  0  0  0  0  0  0  0  0
  -11.4306   -0.3436   -5.9139 C   0  0  0  0  0  0  0  0  0  0  0  0
  -11.8666   -1.0005   -7.2277 C   0  0  0  0  0  0  0  0  0  0  0  0
  -10.9550   -0.7073   -8.3429 N   0  0  0  0  0  0  0  0  0  0  0  0
  -11.4170   -1.2941   -9.6068 C   0  0  0  0  0  0  0  0  0  0  0  0
  -10.7817   -2.6719   -9.6604 C   0  0  0  0  0  0  0  0  0  0  0  0
   -9.4215   -2.4744   -9.0036 C   0  0  3  0  0  0  0  0  0  0  0  0
   -8.3005   -2.3776  -10.0227 C   0  0  0  0  0  0  0  0  0  0  0  0
   -7.5481   -1.4281  -10.1686 O   0  0  0  0  0  0  0  0  0  0  0  0
   -8.1616   -3.5072  -10.7593 O   0  0  0  0  0  0  0  0  0  0  0  0
   -9.5718   -1.1944   -8.1757 C   0  0  0  0  0  0  0  0  0  0  0  0
  -10.6650    1.6703   -1.4562 S   0  0  0  0  0  0  0  0  0  0  0  0
  -10.4304    1.9294    0.2262 C   0  0  0  0  0  0  0  0  0  0  0  0
   -9.8636    5.8073    1.4819 C   0  0  0  0  0  0  0  0  0  0  0  0
   -9.6103    7.0723    2.0035 C   0  0  0  0  0  0  0  0  0  0  0  0
  -10.5345    7.6516    2.7861 F   0  0  0  0  0  0  0  0  0  0  0  0
   -8.0250   13.7822    1.9225 C   0  0  0  0  0  0  0  0  0  0  0  0
   -8.0771   17.1966    1.4286 H   0  0  0  0  0  0  0  0  0  0  0  0
   -7.5421   16.4102    2.9156 H   0  0  0  0  0  0  0  0  0  0  0  0
   -9.2560   16.3201    2.4099 H   0  0  0  0  0  0  0  0  0  0  0  0
   -7.4765   16.0907   -0.5452 H   0  0  0  0  0  0  0  0  0  0  0  0
   -6.9300   14.0210   -1.7838 H   0  0  0  0  0  0  0  0  0  0  0  0
   -8.0884   11.3890    2.8745 H   0  0  0  0  0  0  0  0  0  0  0  0
   -8.9136    9.3390    2.9175 H   0  0  0  0  0  0  0  0  0  0  0  0
   -6.6013    7.6933    0.5498 H   0  0  0  0  0  0  0  0  0  0  0  0
   -6.9909    5.4026   -0.2982 H   0  0  0  0  0  0  0  0  0  0  0  0
   -9.1032    3.5893    2.8723 H   0  0  0  0  0  0  0  0  0  0  0  0
  -10.3790    1.8378    4.0185 H   0  0  0  0  0  0  0  0  0  0  0  0
  -12.3149   -0.8439    0.5278 H   0  0  0  0  0  0  0  0  0  0  0  0
  -11.4165    0.8684   -3.6190 H   0  0  0  0  0  0  0  0  0  0  0  0
  -13.3949   -0.1523   -4.9975 H   0  0  0  0  0  0  0  0  0  0  0  0
  -12.5677   -1.6780   -4.6311 H   0  0  0  0  0  0  0  0  0  0  0  0
  -10.4561   -0.7243   -5.5908 H   0  0  0  0  0  0  0  0  0  0  0  0
  -11.3105    0.7383   -6.0558 H   0  0  0  0  0  0  0  0  0  0  0  0
  -12.8534   -0.5907   -7.4832 H   0  0  0  0  0  0  0  0  0  0  0  0
  -11.9926   -2.0796   -7.0846 H   0  0  0  0  0  0  0  0  0  0  0  0
  -11.0414   -0.6845  -10.4379 H   0  0  0  0  0  0  0  0  0  0  0  0
  -12.5071   -1.3356   -9.7041 H   0  0  0  0  0  0  0  0  0  0  0  0
  -10.7324   -3.0464  -10.6872 H   0  0  0  0  0  0  0  0  0  0  0  0
  -11.3719   -3.3856   -9.0723 H   0  0  0  0  0  0  0  0  0  0  0  0
   -9.1848   -3.3182   -8.3431 H   0  0  0  0  0  0  0  0  0  0  0  0
   -8.7892   -4.2175  -10.5296 H   0  0  0  0  0  0  0  0  0  0  0  0
   -8.8963   -0.3958   -8.4995 H   0  0  0  0  0  0  0  0  0  0  0  0
   -9.3055   -1.4029   -7.1360 H   0  0  0  0  0  0  0  0  0  0  0  0
  -10.8114    5.3317    1.7092 H   0  0  0  0  0  0  0  0  0  0  0  0
   -8.3375   13.7347    2.9617 H   0  0  0  0  0  0  0  0  0  0  0  0
  1  2  1  0  0  0  0
  1 44  1  0  0  0  0
  1 45  1  0  0  0  0
  1 46  1  0  0  0  0
  2  3  1  0  0  0  0
  2 43  2  0  0  0  0
  3  4  2  0  0  0  0
  3 47  1  0  0  0  0
  4  5  1  0  0  0  0
  4 48  1  0  0  0  0
  5  6  1  0  0  0  0
  5  7  2  0  0  0  0
  7  8  1  0  0  0  0
  7 43  1  0  0  0  0
  8  9  1  0  0  0  0
  8 49  1  0  0  0  0
  9 10  2  0  0  0  0
  9 11  1  0  0  0  0
 11 12  1  0  0  0  0
 11 50  1  0  0  0  0
 12 13  1  0  0  0  0
 12 41  2  0  0  0  0
 13 14  2  0  0  0  0
 13 51  1  0  0  0  0
 14 15  1  0  0  0  0
 14 52  1  0  0  0  0
 15 16  1  0  0  0  0
 15 40  2  0  0  0  0
 16 17  1  0  0  0  0
 17 18  1  0  0  0  0
 17 39  2  0  0  0  0
 18 19  2  0  0  0  0
 18 53  1  0  0  0  0
 19 20  1  0  0  0  0
 19 54  1  0  0  0  0
 20 21  2  0  0  0  0
 21 22  1  0  0  0  0
 21 39  1  0  0  0  0
 22 23  2  0  0  0  0
 22 55  1  0  0  0  0
 23 24  1  0  0  0  0
 23 38  1  0  0  0  0
 24 25  2  0  0  0  0
 24 26  1  0  0  0  0
 26 27  1  0  0  0  0
 26 56  1  0  0  0  0
 27 28  1  0  0  0  0
 27 57  1  0  0  0  0
 27 58  1  0  0  0  0
 28 29  1  0  0  0  0
 28 59  1  0  0  0  0
 28 60  1  0  0  0  0
 29 30  1  0  0  0  0
 29 61  1  0  0  0  0
 29 62  1  0  0  0  0
 30 31  1  0  0  0  0
 30 37  1  0  0  0  0
 31 32  1  0  0  0  0
 31 63  1  0  0  0  0
 31 64  1  0  0  0  0
 32 33  1  0  0  0  0
 32 65  1  0  0  0  0
 32 66  1  0  0  0  0
 33 34  1  0  0  0  0
 33 37  1  0  0  0  0
 33 67  1  0  0  0  0
 34 35  2  0  0  0  0
 34 36  1  0  0  0  0
 36 68  1  0  0  0  0
 37 69  1  0  0  0  0
 37 70  1  0  0  0  0
 38 39  1  0  0  0  0
 40 41  1  0  0  0  0
 40 71  1  0  0  0  0
 41 42  1  0  0  0  0
 43 72  1  0  0  0  0
M  END
$$$$
