CHEMBL4796999
 OpenBabel04072215383D

 60 64  0  0  0  0  0  0  0  0999 V2000
    2.6196    4.1134    1.0369 C   0  0  0  0  0  0  0  0  0  0  0  0
    2.4169    5.0236   -0.0432 O   0  0  0  0  0  0  0  0  0  0  0  0
    2.8741    4.6088   -1.2627 C   0  0  0  0  0  0  0  0  0  0  0  0
    3.5023    3.3912   -1.5059 C   0  0  0  0  0  0  0  0  0  0  0  0
    3.9371    3.0528   -2.7914 C   0  0  0  0  0  0  0  0  0  0  0  0
    3.7598    3.9313   -3.8517 C   0  0  0  0  0  0  0  0  0  0  0  0
    4.2068    3.6486   -5.1528 N   0  0  0  0  0  0  0  0  0  0  0  0
    4.8051    2.5239   -5.6381 C   0  0  0  0  0  0  0  0  0  0  0  0
    5.0343    1.4831   -4.9851 O   0  0  0  0  0  0  0  0  0  0  0  0
    5.1348    2.5003   -6.9580 N   0  0  0  0  0  0  0  0  0  0  0  0
    5.0287    3.5467   -7.8553 C   0  0  0  0  0  0  0  0  0  0  0  0
    5.1841    3.2750   -9.1521 N   0  0  0  0  0  0  0  0  0  0  0  0
    4.9022    4.2840   -9.9805 C   0  0  0  0  0  0  0  0  0  0  0  0
    5.2050    3.9805  -11.7170 S   0  0  0  0  0  0  0  0  0  0  0  0
    6.6137    4.9729  -12.0735 C   0  0  0  0  0  0  0  0  0  0  0  0
    7.1715    5.9574  -11.2848 C   0  0  0  0  0  0  0  0  0  0  0  0
    8.3169    6.3545  -11.9363 N   0  0  0  0  0  0  0  0  0  0  0  0
    7.9842    6.2947  -13.2733 C   0  0  0  0  0  0  0  0  0  0  0  0
    8.3050    7.1364  -14.3332 C   0  0  0  0  0  0  0  0  0  0  0  0
    7.8367    6.7471  -15.5858 C   0  0  0  0  0  0  0  0  0  0  0  0
    7.2200    5.5048  -15.7690 C   0  0  0  0  0  0  0  0  0  0  0  0
    6.8982    4.6824  -14.6774 C   0  0  0  0  0  0  0  0  0  0  0  0
    7.1635    5.1712  -13.3858 C   0  0  0  0  0  0  0  0  0  0  0  0
    4.4261    5.5122   -9.5603 C   0  0  0  0  0  0  0  0  0  0  0  0
    4.4387    5.7573   -8.2094 C   0  0  0  0  0  0  0  0  0  0  0  0
    4.1586    6.9737   -7.6455 N   0  0  0  0  0  0  0  0  0  0  0  0
    3.2236    7.9151   -8.2400 C   0  0  0  0  0  0  0  0  0  0  0  0
    3.9689    9.1349   -8.7716 C   0  0  0  0  0  0  0  0  0  0  0  0
    4.8381    9.7618   -7.6831 C   0  0  0  0  0  0  0  0  0  0  0  0
    5.7909    8.7257   -7.0875 C   0  0  0  0  0  0  0  0  0  0  0  0
    5.0386    7.4856   -6.5847 C   0  0  0  0  0  0  0  0  0  0  0  0
    4.7351    4.7608   -7.3634 N   0  0  0  0  0  0  0  0  0  0  0  0
    3.1176    5.1565   -3.6144 C   0  0  0  0  0  0  0  0  0  0  0  0
    2.6789    5.4928   -2.3264 C   0  0  0  0  0  0  0  0  0  0  0  0
    2.1607    4.5361    1.9350 H   0  0  0  0  0  0  0  0  0  0  0  0
    3.6893    3.9788    1.2373 H   0  0  0  0  0  0  0  0  0  0  0  0
    2.1330    3.1520    0.8398 H   0  0  0  0  0  0  0  0  0  0  0  0
    3.6831    2.6602   -0.7192 H   0  0  0  0  0  0  0  0  0  0  0  0
    4.4238    2.0926   -2.9187 H   0  0  0  0  0  0  0  0  0  0  0  0
    4.0818    4.3949   -5.8378 H   0  0  0  0  0  0  0  0  0  0  0  0
    5.4426    1.6120   -7.3448 H   0  0  0  0  0  0  0  0  0  0  0  0
    6.8876    6.4405  -10.3605 H   0  0  0  0  0  0  0  0  0  0  0  0
    9.2172    5.9992  -11.6392 H   0  0  0  0  0  0  0  0  0  0  0  0
    8.8042    8.0865  -14.1738 H   0  0  0  0  0  0  0  0  0  0  0  0
    7.9575    7.4216  -16.4297 H   0  0  0  0  0  0  0  0  0  0  0  0
    6.9224    5.2038  -16.7685 H   0  0  0  0  0  0  0  0  0  0  0  0
    6.3425    3.7637  -14.8292 H   0  0  0  0  0  0  0  0  0  0  0  0
    4.1667    6.2832  -10.2696 H   0  0  0  0  0  0  0  0  0  0  0  0
    2.5043    8.2285   -7.4731 H   0  0  0  0  0  0  0  0  0  0  0  0
    2.6271    7.4592   -9.0394 H   0  0  0  0  0  0  0  0  0  0  0  0
    3.2501    9.8722   -9.1444 H   0  0  0  0  0  0  0  0  0  0  0  0
    4.6043    8.8418   -9.6162 H   0  0  0  0  0  0  0  0  0  0  0  0
    4.1992   10.1722   -6.8913 H   0  0  0  0  0  0  0  0  0  0  0  0
    5.4091   10.5982   -8.1017 H   0  0  0  0  0  0  0  0  0  0  0  0
    6.3607    9.1783   -6.2671 H   0  0  0  0  0  0  0  0  0  0  0  0
    6.5171    8.4262   -7.8540 H   0  0  0  0  0  0  0  0  0  0  0  0
    4.4357    7.7560   -5.7083 H   0  0  0  0  0  0  0  0  0  0  0  0
    5.7752    6.7484   -6.2442 H   0  0  0  0  0  0  0  0  0  0  0  0
    2.9468    5.8599   -4.4254 H   0  0  0  0  0  0  0  0  0  0  0  0
    2.1852    6.4432   -2.1521 H   0  0  0  0  0  0  0  0  0  0  0  0
  1  2  1  0  0  0  0
  1 35  1  0  0  0  0
  1 36  1  0  0  0  0
  1 37  1  0  0  0  0
  2  3  1  0  0  0  0
  3  4  1  0  0  0  0
  3 34  2  0  0  0  0
  4  5  2  0  0  0  0
  4 38  1  0  0  0  0
  5  6  1  0  0  0  0
  5 39  1  0  0  0  0
  6  7  1  0  0  0  0
  6 33  2  0  0  0  0
  7  8  1  0  0  0  0
  7 40  1  0  0  0  0
  8  9  2  0  0  0  0
  8 10  1  0  0  0  0
 10 11  1  0  0  0  0
 10 41  1  0  0  0  0
 11 12  1  0  0  0  0
 11 32  2  0  0  0  0
 12 13  2  0  0  0  0
 13 14  1  0  0  0  0
 13 24  1  0  0  0  0
 14 15  1  0  0  0  0
 15 16  2  0  0  0  0
 15 23  1  0  0  0  0
 16 17  1  0  0  0  0
 16 42  1  0  0  0  0
 17 18  1  0  0  0  0
 17 43  1  0  0  0  0
 18 19  1  0  0  0  0
 18 23  2  0  0  0  0
 19 20  2  0  0  0  0
 19 44  1  0  0  0  0
 20 21  1  0  0  0  0
 20 45  1  0  0  0  0
 21 22  2  0  0  0  0
 21 46  1  0  0  0  0
 22 23  1  0  0  0  0
 22 47  1  0  0  0  0
 24 25  2  0  0  0  0
 24 48  1  0  0  0  0
 25 26  1  0  0  0  0
 25 32  1  0  0  0  0
 26 27  1  0  0  0  0
 26 31  1  0  0  0  0
 27 28  1  0  0  0  0
 27 49  1  0  0  0  0
 27 50  1  0  0  0  0
 28 29  1  0  0  0  0
 28 51  1  0  0  0  0
 28 52  1  0  0  0  0
 29 30  1  0  0  0  0
 29 53  1  0  0  0  0
 29 54  1  0  0  0  0
 30 31  1  0  0  0  0
 30 55  1  0  0  0  0
 30 56  1  0  0  0  0
 31 57  1  0  0  0  0
 31 58  1  0  0  0  0
 33 34  1  0  0  0  0
 33 59  1  0  0  0  0
 34 60  1  0  0  0  0
M  END
$$$$
