CHEMBL4227281
 OpenBabel04072215383D

 54 57  0  0  0  0  0  0  0  0999 V2000
    2.2153    0.8011    2.2598 C   0  0  0  0  0  0  0  0  0  0  0  0
    0.7206    0.8372    2.1243 C   0  0  0  0  0  0  0  0  0  0  0  0
    0.1141    1.6192    1.1352 C   0  0  0  0  0  0  0  0  0  0  0  0
   -1.2764    1.6500    1.0111 C   0  0  0  0  0  0  0  0  0  0  0  0
   -2.0752    0.8963    1.8758 C   0  0  0  0  0  0  0  0  0  0  0  0
   -3.5494    0.9200    1.7379 C   0  0  0  0  0  0  0  0  0  0  0  0
   -4.1233    1.6657    0.8471 N   0  0  0  0  0  0  0  0  0  0  0  0
   -5.4869    1.6110    0.7718 N   0  0  0  0  0  0  0  0  0  0  0  0
   -6.1416    2.4067   -0.1573 C   0  0  0  0  0  0  0  0  0  0  0  0
   -5.5415    3.1525   -0.9325 O   0  0  0  0  0  0  0  0  0  0  0  0
   -7.5330    2.3534   -0.1433 N   0  0  0  0  0  0  0  0  0  0  0  0
   -8.3821    1.5371    0.7182 C   0  0  0  0  0  0  0  0  0  0  0  0
   -9.1059    2.4304    1.7144 C   0  0  0  0  0  0  0  0  0  0  0  0
   -9.7861    3.5835    1.0240 C   0  0  0  0  0  0  0  0  0  0  0  0
  -10.7611    4.1916    1.7301 N   0  0  0  0  0  0  0  0  0  0  0  0
  -11.3127    5.2657    1.1600 C   0  0  0  0  0  0  0  0  0  0  0  0
  -10.9903    5.7693   -0.0340 N   0  0  0  0  0  0  0  0  0  0  0  0
  -10.0174    5.1468   -0.7290 C   0  0  0  0  0  0  0  0  0  0  0  0
   -9.6822    5.6568   -2.0065 N   0  0  0  0  0  0  0  0  0  0  0  0
   -9.8115    7.0089   -2.4038 C   0  0  0  0  0  0  0  0  0  0  0  0
  -10.0750    7.3374   -3.7387 C   0  0  0  0  0  0  0  0  0  0  0  0
  -10.1479    8.6739   -4.1459 C   0  0  0  0  0  0  0  0  0  0  0  0
   -9.9269    9.7016   -3.2288 C   0  0  0  0  0  0  0  0  0  0  0  0
   -9.6234    9.4016   -1.8959 C   0  0  0  0  0  0  0  0  0  0  0  0
   -9.3463   10.4818   -0.8828 C   0  0  0  0  0  0  0  0  0  0  0  0
   -9.4045   11.7417   -1.4008 F   0  0  0  0  0  0  0  0  0  0  0  0
  -10.2279   10.4687    0.1556 F   0  0  0  0  0  0  0  0  0  0  0  0
   -8.1090   10.3705   -0.3232 F   0  0  0  0  0  0  0  0  0  0  0  0
   -9.5657    8.0548   -1.5017 C   0  0  0  0  0  0  0  0  0  0  0  0
   -9.3675    4.0214   -0.2294 C   0  0  0  0  0  0  0  0  0  0  0  0
   -8.2677    3.3131   -0.9797 C   0  0  0  0  0  0  0  0  0  0  0  0
   -1.4814    0.1120    2.8682 C   0  0  0  0  0  0  0  0  0  0  0  0
   -0.0868    0.0846    2.9896 C   0  0  0  0  0  0  0  0  0  0  0  0
    2.7006    1.4505    1.5230 H   0  0  0  0  0  0  0  0  0  0  0  0
    2.5855   -0.2171    2.1030 H   0  0  0  0  0  0  0  0  0  0  0  0
    2.5141    1.1453    3.2550 H   0  0  0  0  0  0  0  0  0  0  0  0
    0.7161    2.2132    0.4509 H   0  0  0  0  0  0  0  0  0  0  0  0
   -1.7310    2.2644    0.2360 H   0  0  0  0  0  0  0  0  0  0  0  0
   -4.1297    0.2824    2.4276 H   0  0  0  0  0  0  0  0  0  0  0  0
   -5.9509    0.8482    1.2341 H   0  0  0  0  0  0  0  0  0  0  0  0
   -7.8264    0.7639    1.2491 H   0  0  0  0  0  0  0  0  0  0  0  0
   -9.1008    1.0195    0.0699 H   0  0  0  0  0  0  0  0  0  0  0  0
   -8.3888    2.8440    2.4337 H   0  0  0  0  0  0  0  0  0  0  0  0
   -9.8426    1.8417    2.2720 H   0  0  0  0  0  0  0  0  0  0  0  0
  -12.0926    5.7759    1.7138 H   0  0  0  0  0  0  0  0  0  0  0  0
   -9.9877    5.0100   -2.7251 H   0  0  0  0  0  0  0  0  0  0  0  0
  -10.2380    6.5581   -4.4782 H   0  0  0  0  0  0  0  0  0  0  0  0
  -10.3708    8.9139   -5.1830 H   0  0  0  0  0  0  0  0  0  0  0  0
   -9.9812   10.7372   -3.5610 H   0  0  0  0  0  0  0  0  0  0  0  0
   -9.3126    7.8218   -0.4679 H   0  0  0  0  0  0  0  0  0  0  0  0
   -7.5862    4.0493   -1.4166 H   0  0  0  0  0  0  0  0  0  0  0  0
   -8.7149    2.7361   -1.7988 H   0  0  0  0  0  0  0  0  0  0  0  0
   -2.0840   -0.4785    3.5525 H   0  0  0  0  0  0  0  0  0  0  0  0
    0.3719   -0.5271    3.7645 H   0  0  0  0  0  0  0  0  0  0  0  0
  1  2  1  0  0  0  0
  1 34  1  0  0  0  0
  1 35  1  0  0  0  0
  1 36  1  0  0  0  0
  2  3  1  0  0  0  0
  2 33  2  0  0  0  0
  3  4  2  0  0  0  0
  3 37  1  0  0  0  0
  4  5  1  0  0  0  0
  4 38  1  0  0  0  0
  5  6  1  0  0  0  0
  5 32  2  0  0  0  0
  6  7  2  0  0  0  0
  6 39  1  0  0  0  0
  7  8  1  0  0  0  0
  8  9  1  0  0  0  0
  8 40  1  0  0  0  0
  9 10  2  0  0  0  0
  9 11  1  0  0  0  0
 11 12  1  0  0  0  0
 11 31  1  0  0  0  0
 12 13  1  0  0  0  0
 12 41  1  0  0  0  0
 12 42  1  0  0  0  0
 13 14  1  0  0  0  0
 13 43  1  0  0  0  0
 13 44  1  0  0  0  0
 14 15  1  0  0  0  0
 14 30  2  0  0  0  0
 15 16  2  0  0  0  0
 16 17  1  0  0  0  0
 16 45  1  0  0  0  0
 17 18  2  0  0  0  0
 18 19  1  0  0  0  0
 18 30  1  0  0  0  0
 19 20  1  0  0  0  0
 19 46  1  0  0  0  0
 20 21  1  0  0  0  0
 20 29  2  0  0  0  0
 21 22  2  0  0  0  0
 21 47  1  0  0  0  0
 22 23  1  0  0  0  0
 22 48  1  0  0  0  0
 23 24  2  0  0  0  0
 23 49  1  0  0  0  0
 24 25  1  0  0  0  0
 24 29  1  0  0  0  0
 25 26  1  0  0  0  0
 25 27  1  0  0  0  0
 25 28  1  0  0  0  0
 29 50  1  0  0  0  0
 30 31  1  0  0  0  0
 31 51  1  0  0  0  0
 31 52  1  0  0  0  0
 32 33  1  0  0  0  0
 32 53  1  0  0  0  0
 33 54  1  0  0  0  0
M  END
$$$$
