CHEMBL3975481
 OpenBabel04072215373D

 51 54  0  0  0  0  0  0  0  0999 V2000
    2.4704   -0.6534   -1.1780 O   0  0  0  0  0  0  0  0  0  0  0  0
    2.1070    0.2541   -0.4399 C   0  0  0  0  0  0  0  0  0  0  0  0
    0.7820    0.5600   -0.1855 N   0  0  0  0  0  0  0  0  0  0  0  0
   -0.3384   -0.1047   -0.7458 C   0  0  0  0  0  0  0  0  0  0  0  0
   -0.2545   -1.3180   -1.4354 C   0  0  0  0  0  0  0  0  0  0  0  0
   -1.3818   -1.8931   -2.0247 C   0  0  0  0  0  0  0  0  0  0  0  0
   -2.6190   -1.2695   -1.9150 C   0  0  0  0  0  0  0  0  0  0  0  0
   -2.7425   -0.0721   -1.1987 C   0  0  0  0  0  0  0  0  0  0  0  0
   -4.0790    0.6074   -1.0574 C   0  0  0  0  0  0  0  0  0  0  0  0
   -5.0994   -0.0582   -1.6659 F   0  0  0  0  0  0  0  0  0  0  0  0
   -4.4513    0.7502    0.2454 F   0  0  0  0  0  0  0  0  0  0  0  0
   -4.0840    1.8628   -1.5854 F   0  0  0  0  0  0  0  0  0  0  0  0
   -1.5939    0.5006   -0.6136 C   0  0  0  0  0  0  0  0  0  0  0  0
    2.9791    1.1106    0.2145 N   0  0  0  0  0  0  0  0  0  0  0  0
    4.3938    1.1160    0.0916 C   0  0  0  0  0  0  0  0  0  0  0  0
    5.0968    0.2780   -0.7721 C   0  0  0  0  0  0  0  0  0  0  0  0
    6.4935    0.3049   -0.8158 C   0  0  0  0  0  0  0  0  0  0  0  0
    7.2138    1.2109   -0.0376 C   0  0  0  0  0  0  0  0  0  0  0  0
    8.5929    1.2542   -0.0129 O   0  0  0  0  0  0  0  0  0  0  0  0
    9.2775    1.0422   -1.2079 C   0  0  0  0  0  0  0  0  0  0  0  0
   10.5659    0.5557   -1.1156 C   0  0  0  0  0  0  0  0  0  0  0  0
   11.2344    0.3984   -2.3123 C   0  0  0  0  0  0  0  0  0  0  0  0
   12.5759   -0.0228   -2.2882 N   0  0  0  0  0  0  0  0  0  0  0  0
   13.3753   -0.0930   -3.4099 C   0  0  0  0  0  0  0  0  0  0  0  0
   13.0553    0.1361   -4.5667 O   0  0  0  0  0  0  0  0  0  0  0  0
   14.8109   -0.4605   -3.1849 C   0  0  0  0  0  0  0  0  0  0  0  0
   15.4440   -0.9178   -1.8982 C   0  0  0  0  0  0  0  0  0  0  0  0
   15.6932    0.4788   -2.3926 C   0  0  0  0  0  0  0  0  0  0  0  0
   10.6480    0.6627   -3.4862 N   0  0  0  0  0  0  0  0  0  0  0  0
    9.4021    1.1363   -3.4649 C   0  0  0  0  0  0  0  0  0  0  0  0
    8.6833    1.3692   -2.3682 N   0  0  0  0  0  0  0  0  0  0  0  0
    6.5252    2.0646    0.8257 C   0  0  0  0  0  0  0  0  0  0  0  0
    5.1288    2.0087    0.8816 C   0  0  0  0  0  0  0  0  0  0  0  0
    4.4814    2.8360    1.7196 F   0  0  0  0  0  0  0  0  0  0  0  0
    0.5978    1.4195    0.3085 H   0  0  0  0  0  0  0  0  0  0  0  0
    0.6821   -1.8569   -1.5386 H   0  0  0  0  0  0  0  0  0  0  0  0
   -1.2826   -2.8277   -2.5721 H   0  0  0  0  0  0  0  0  0  0  0  0
   -3.4861   -1.7250   -2.3898 H   0  0  0  0  0  0  0  0  0  0  0  0
   -1.6970    1.4387   -0.0707 H   0  0  0  0  0  0  0  0  0  0  0  0
    2.6002    1.7471    0.9041 H   0  0  0  0  0  0  0  0  0  0  0  0
    4.6037   -0.4225   -1.4358 H   0  0  0  0  0  0  0  0  0  0  0  0
    6.9963   -0.3876   -1.4859 H   0  0  0  0  0  0  0  0  0  0  0  0
   11.0094    0.3322   -0.1564 H   0  0  0  0  0  0  0  0  0  0  0  0
   12.9922   -0.2086   -1.3913 H   0  0  0  0  0  0  0  0  0  0  0  0
   15.2548   -0.8784   -4.0875 H   0  0  0  0  0  0  0  0  0  0  0  0
   16.2625   -1.6282   -1.9771 H   0  0  0  0  0  0  0  0  0  0  0  0
   14.8547   -1.0515   -1.0026 H   0  0  0  0  0  0  0  0  0  0  0  0
   16.6645    0.7169   -2.8127 H   0  0  0  0  0  0  0  0  0  0  0  0
   15.2319    1.3025   -1.8605 H   0  0  0  0  0  0  0  0  0  0  0  0
    8.9401    1.3473   -4.4223 H   0  0  0  0  0  0  0  0  0  0  0  0
    7.0587    2.7697    1.4521 H   0  0  0  0  0  0  0  0  0  0  0  0
  1  2  2  0  0  0  0
  2  3  1  0  0  0  0
  2 14  1  0  0  0  0
  3  4  1  0  0  0  0
  3 35  1  0  0  0  0
  4  5  1  0  0  0  0
  4 13  2  0  0  0  0
  5  6  2  0  0  0  0
  5 36  1  0  0  0  0
  6  7  1  0  0  0  0
  6 37  1  0  0  0  0
  7  8  2  0  0  0  0
  7 38  1  0  0  0  0
  8  9  1  0  0  0  0
  8 13  1  0  0  0  0
  9 10  1  0  0  0  0
  9 11  1  0  0  0  0
  9 12  1  0  0  0  0
 13 39  1  0  0  0  0
 14 15  1  0  0  0  0
 14 40  1  0  0  0  0
 15 16  1  0  0  0  0
 15 33  2  0  0  0  0
 16 17  2  0  0  0  0
 16 41  1  0  0  0  0
 17 18  1  0  0  0  0
 17 42  1  0  0  0  0
 18 19  1  0  0  0  0
 18 32  2  0  0  0  0
 19 20  1  0  0  0  0
 20 21  1  0  0  0  0
 20 31  2  0  0  0  0
 21 22  2  0  0  0  0
 21 43  1  0  0  0  0
 22 23  1  0  0  0  0
 22 29  1  0  0  0  0
 23 24  1  0  0  0  0
 23 44  1  0  0  0  0
 24 25  2  0  0  0  0
 24 26  1  0  0  0  0
 26 27  1  0  0  0  0
 26 28  1  0  0  0  0
 26 45  1  0  0  0  0
 27 28  1  0  0  0  0
 27 46  1  0  0  0  0
 27 47  1  0  0  0  0
 28 48  1  0  0  0  0
 28 49  1  0  0  0  0
 29 30  2  0  0  0  0
 30 31  1  0  0  0  0
 30 50  1  0  0  0  0
 32 33  1  0  0  0  0
 32 51  1  0  0  0  0
 33 34  1  0  0  0  0
M  END
$$$$
