CHEMBL1271720
 OpenBabel04072215363D

 32 34  0  0  0  0  0  0  0  0999 V2000
    0.9513    0.3390    0.1712 O   0  0  0  0  0  0  0  0  0  0  0  0
    2.1456    0.1168   -0.0122 C   0  0  0  0  0  0  0  0  0  0  0  0
    2.7415   -0.0056   -1.2523 N   0  0  0  0  0  0  0  0  0  0  0  0
    2.0844    0.1465   -2.4918 C   0  0  0  0  0  0  0  0  0  0  0  0
    0.8394    0.7449   -2.6449 C   0  0  0  0  0  0  0  0  0  0  0  0
    0.1797    0.8595   -3.8229 N   0  0  0  0  0  0  0  0  0  0  0  0
    0.7569    0.3409   -4.9142 C   0  0  0  0  0  0  0  0  0  0  0  0
    0.0714    0.3914   -6.1178 C   0  0  0  0  0  0  0  0  0  0  0  0
    0.6009   -0.1630   -7.2845 C   0  0  0  0  0  0  0  0  0  0  0  0
    1.8501   -0.7713   -7.2546 C   0  0  0  0  0  0  0  0  0  0  0  0
    2.5680   -0.8201   -6.0588 C   0  0  0  0  0  0  0  0  0  0  0  0
    2.0281   -0.2720   -4.8801 C   0  0  0  0  0  0  0  0  0  0  0  0
    2.7006   -0.3334   -3.6457 C   0  0  0  0  0  0  0  0  0  0  0  0
    3.0114   -0.0758    1.1915 C   0  0  0  0  0  0  0  0  0  0  0  0
    2.3514   -0.1369    2.4338 C   0  0  0  0  0  0  0  0  0  0  0  0
    3.0737   -0.2713    3.6171 C   0  0  0  0  0  0  0  0  0  0  0  0
    2.1584   -0.3447    5.2692 Br  0  0  0  0  0  0  0  0  0  0  0  0
    4.4614   -0.3451    3.5911 C   0  0  0  0  0  0  0  0  0  0  0  0
    5.1246   -0.2945    2.3651 C   0  0  0  0  0  0  0  0  0  0  0  0
    7.0193   -0.3900    2.3568 Br  0  0  0  0  0  0  0  0  0  0  0  0
    4.4092   -0.1678    1.1637 C   0  0  0  0  0  0  0  0  0  0  0  0
    5.0828   -0.1338   -0.0334 O   0  0  0  0  0  0  0  0  0  0  0  0
    3.7153   -0.3003   -1.2641 H   0  0  0  0  0  0  0  0  0  0  0  0
    0.3036    1.1902   -1.8134 H   0  0  0  0  0  0  0  0  0  0  0  0
   -0.9082    0.8626   -6.1408 H   0  0  0  0  0  0  0  0  0  0  0  0
    0.0292   -0.1221   -8.2074 H   0  0  0  0  0  0  0  0  0  0  0  0
    2.2609   -1.2135   -8.1585 H   0  0  0  0  0  0  0  0  0  0  0  0
    3.5410   -1.3043   -6.0475 H   0  0  0  0  0  0  0  0  0  0  0  0
    3.6786   -0.8028   -3.5894 H   0  0  0  0  0  0  0  0  0  0  0  0
    1.2638   -0.0753    2.4734 H   0  0  0  0  0  0  0  0  0  0  0  0
    5.0201   -0.4403    4.5189 H   0  0  0  0  0  0  0  0  0  0  0  0
    6.0400   -0.1282    0.1696 H   0  0  0  0  0  0  0  0  0  0  0  0
  1  2  2  0  0  0  0
  2  3  1  0  0  0  0
  2 14  1  0  0  0  0
  3  4  1  0  0  0  0
  3 23  1  0  0  0  0
  4  5  1  0  0  0  0
  4 13  2  0  0  0  0
  5  6  2  0  0  0  0
  5 24  1  0  0  0  0
  6  7  1  0  0  0  0
  7  8  1  0  0  0  0
  7 12  2  0  0  0  0
  8  9  2  0  0  0  0
  8 25  1  0  0  0  0
  9 10  1  0  0  0  0
  9 26  1  0  0  0  0
 10 11  2  0  0  0  0
 10 27  1  0  0  0  0
 11 12  1  0  0  0  0
 11 28  1  0  0  0  0
 12 13  1  0  0  0  0
 13 29  1  0  0  0  0
 14 15  1  0  0  0  0
 14 21  2  0  0  0  0
 15 16  2  0  0  0  0
 15 30  1  0  0  0  0
 16 17  1  0  0  0  0
 16 18  1  0  0  0  0
 18 19  2  0  0  0  0
 18 31  1  0  0  0  0
 19 20  1  0  0  0  0
 19 21  1  0  0  0  0
 21 22  1  0  0  0  0
 22 32  1  0  0  0  0
M  END
$$$$
