CHEMBL1983980
 OpenBabel04072215363D

 60 65  0  0  0  0  0  0  0  0999 V2000
    0.9991    0.1589   -0.0546 O   0  0  0  0  0  0  0  0  0  0  0  0
    2.1932   -0.1087   -0.1283 C   0  0  0  0  0  0  0  0  0  0  0  0
    2.8708   -1.0250    0.6470 N   0  0  0  0  0  0  0  0  0  0  0  0
    2.2832   -1.7918    1.6250 C   0  0  0  0  0  0  0  0  0  0  0  0
    2.9873   -2.4008    2.5492 N   0  0  0  0  0  0  0  0  0  0  0  0
    2.1217   -3.0224    3.4447 C   0  0  0  0  0  0  0  0  0  0  0  0
    2.4848   -3.6899    4.6301 C   0  0  0  0  0  0  0  0  0  0  0  0
    1.4920   -4.2560    5.4393 C   0  0  0  0  0  0  0  0  0  0  0  0
    0.1508   -4.1761    5.0744 C   0  0  0  0  0  0  0  0  0  0  0  0
   -0.2357   -3.5263    3.9022 C   0  0  0  0  0  0  0  0  0  0  0  0
    0.7700   -2.9481    3.1120 C   0  0  0  0  0  0  0  0  0  0  0  0
    0.6018   -2.0690    1.6585 S   0  0  0  0  0  0  0  0  0  0  0  0
    2.9950    0.6338   -1.1406 C   0  0  0  0  0  0  0  0  0  0  0  0
    4.0384   -0.0300   -1.8095 C   0  0  0  0  0  0  0  0  0  0  0  0
    4.6830    0.5741   -2.8895 C   0  0  0  0  0  0  0  0  0  0  0  0
    4.2923    1.8389   -3.3160 C   0  0  0  0  0  0  0  0  0  0  0  0
    3.2805    2.5229   -2.6369 C   0  0  0  0  0  0  0  0  0  0  0  0
    2.6285    1.9415   -1.5299 C   0  0  0  0  0  0  0  0  0  0  0  0
    1.4947    2.7274   -0.8766 C   0  0  0  0  0  0  0  0  0  0  0  0
    1.7584    4.1723   -0.8504 N   0  0  0  0  0  0  0  0  0  0  0  0
    1.2046    4.9373    0.1358 C   0  0  0  0  0  0  0  0  0  0  0  0
    0.4967    4.4693    1.1409 N   0  0  0  0  0  0  0  0  0  0  0  0
   -0.0397    5.5108    1.9190 C   0  0  0  0  0  0  0  0  0  0  0  0
   -0.8977    5.1559    3.0518 C   0  0  0  0  0  0  0  0  0  0  0  0
   -1.7654    5.8548    3.5417 O   0  0  0  0  0  0  0  0  0  0  0  0
   -0.5872    3.9291    3.5523 O   0  0  0  0  0  0  0  0  0  0  0  0
    0.3617    6.7860    1.5469 C   0  0  0  0  0  0  0  0  0  0  0  0
    0.1162    8.1082    2.1372 C   0  0  0  0  0  0  0  0  0  0  0  0
   -0.0274    8.2462    3.5215 C   0  0  0  0  0  0  0  0  0  0  0  0
   -0.3199    9.4793    4.1039 C   0  0  0  0  0  0  0  0  0  0  0  0
   -0.4323   10.6244    3.3139 C   0  0  0  0  0  0  0  0  0  0  0  0
   -0.7968   11.9461    3.9280 C   0  0  0  0  0  0  0  0  0  0  0  0
    0.2213   12.9059    3.6849 O   0  0  0  0  0  0  0  0  0  0  0  0
   -0.2418   10.5110    1.9321 C   0  0  0  0  0  0  0  0  0  0  0  0
    0.0246    9.2678    1.3495 C   0  0  0  0  0  0  0  0  0  0  0  0
    1.4054    6.6524    0.1957 S   0  0  0  0  0  0  0  0  0  0  0  0
    2.6071    4.7759   -1.8776 C   0  0  0  0  0  0  0  0  0  0  0  0
    2.8154    3.8771   -3.0891 C   0  0  0  0  0  0  0  0  0  0  0  0
    3.8806   -1.0453    0.6626 H   0  0  0  0  0  0  0  0  0  0  0  0
    3.5300   -3.7460    4.9168 H   0  0  0  0  0  0  0  0  0  0  0  0
    1.7729   -4.7582    6.3621 H   0  0  0  0  0  0  0  0  0  0  0  0
   -0.6102   -4.6228    5.7117 H   0  0  0  0  0  0  0  0  0  0  0  0
   -1.2806   -3.4480    3.6209 H   0  0  0  0  0  0  0  0  0  0  0  0
    4.3255   -1.0444   -1.5454 H   0  0  0  0  0  0  0  0  0  0  0  0
    5.4661    0.0411   -3.4235 H   0  0  0  0  0  0  0  0  0  0  0  0
    4.7739    2.2851   -4.1834 H   0  0  0  0  0  0  0  0  0  0  0  0
    1.3450    2.3858    0.1503 H   0  0  0  0  0  0  0  0  0  0  0  0
    0.5755    2.5381   -1.4472 H   0  0  0  0  0  0  0  0  0  0  0  0
    0.1053    3.5321    2.9765 H   0  0  0  0  0  0  0  0  0  0  0  0
    0.0591    7.3881    4.1838 H   0  0  0  0  0  0  0  0  0  0  0  0
   -0.4795    9.5194    5.1785 H   0  0  0  0  0  0  0  0  0  0  0  0
   -0.9301   11.8593    5.0114 H   0  0  0  0  0  0  0  0  0  0  0  0
   -1.7372   12.3082    3.5015 H   0  0  0  0  0  0  0  0  0  0  0  0
    1.0495   12.5222    4.0199 H   0  0  0  0  0  0  0  0  0  0  0  0
   -0.3213   11.3920    1.2984 H   0  0  0  0  0  0  0  0  0  0  0  0
    0.1438    9.2264    0.2689 H   0  0  0  0  0  0  0  0  0  0  0  0
    3.5790    5.0134   -1.4254 H   0  0  0  0  0  0  0  0  0  0  0  0
    2.1723    5.7105   -2.2506 H   0  0  0  0  0  0  0  0  0  0  0  0
    3.5463    4.3453   -3.7573 H   0  0  0  0  0  0  0  0  0  0  0  0
    1.8778    3.7636   -3.6477 H   0  0  0  0  0  0  0  0  0  0  0  0
  1  2  2  0  0  0  0
  2  3  1  0  0  0  0
  2 13  1  0  0  0  0
  3  4  1  0  0  0  0
  3 39  1  0  0  0  0
  4  5  2  0  0  0  0
  4 12  1  0  0  0  0
  5  6  1  0  0  0  0
  6  7  1  0  0  0  0
  6 11  2  0  0  0  0
  7  8  2  0  0  0  0
  7 40  1  0  0  0  0
  8  9  1  0  0  0  0
  8 41  1  0  0  0  0
  9 10  2  0  0  0  0
  9 42  1  0  0  0  0
 10 11  1  0  0  0  0
 10 43  1  0  0  0  0
 11 12  1  0  0  0  0
 13 14  1  0  0  0  0
 13 18  2  0  0  0  0
 14 15  2  0  0  0  0
 14 44  1  0  0  0  0
 15 16  1  0  0  0  0
 15 45  1  0  0  0  0
 16 17  2  0  0  0  0
 16 46  1  0  0  0  0
 17 18  1  0  0  0  0
 17 38  1  0  0  0  0
 18 19  1  0  0  0  0
 19 20  1  0  0  0  0
 19 47  1  0  0  0  0
 19 48  1  0  0  0  0
 20 21  1  0  0  0  0
 20 37  1  0  0  0  0
 21 22  2  0  0  0  0
 21 36  1  0  0  0  0
 22 23  1  0  0  0  0
 23 24  1  0  0  0  0
 23 27  2  0  0  0  0
 24 25  2  0  0  0  0
 24 26  1  0  0  0  0
 26 49  1  0  0  0  0
 27 28  1  0  0  0  0
 27 36  1  0  0  0  0
 28 29  1  0  0  0  0
 28 35  2  0  0  0  0
 29 30  2  0  0  0  0
 29 50  1  0  0  0  0
 30 31  1  0  0  0  0
 30 51  1  0  0  0  0
 31 32  1  0  0  0  0
 31 34  2  0  0  0  0
 32 33  1  0  0  0  0
 32 52  1  0  0  0  0
 32 53  1  0  0  0  0
 33 54  1  0  0  0  0
 34 35  1  0  0  0  0
 34 55  1  0  0  0  0
 35 56  1  0  0  0  0
 37 38  1  0  0  0  0
 37 57  1  0  0  0  0
 37 58  1  0  0  0  0
 38 59  1  0  0  0  0
 38 60  1  0  0  0  0
M  END
$$$$
