CHEMBL3973966
 OpenBabel04072215373D

 71 73  0  0  0  0  0  0  0  0999 V2000
    2.4484  -10.0490   -5.5948 O   0  0  0  0  0  0  0  0  0  0  0  0
    2.5776  -10.4827   -6.7573 C   0  0  0  0  0  0  0  0  0  0  0  0
    2.8824   -9.5816   -7.9551 C   0  0  0  0  0  0  0  0  0  0  0  0
    3.0046   -8.1179   -7.5388 C   0  0  0  0  0  0  0  0  0  0  0  0
    3.3067   -7.2031   -8.7225 C   0  0  0  0  0  0  0  0  0  0  0  0
    3.4217   -5.7498   -8.2630 C   0  0  0  0  0  0  0  0  0  0  0  0
    3.7221   -4.8274   -9.4393 C   0  0  0  0  0  0  0  0  0  0  0  0
    3.8364   -3.3700   -8.9891 C   0  0  0  0  0  0  0  0  0  0  0  0
    4.1452   -2.4485  -10.1684 C   0  0  0  0  0  0  0  0  0  0  0  0
    3.1162   -2.4839  -11.1837 N   0  0  0  0  0  0  0  0  0  0  0  0
    2.0232   -1.6368  -11.1229 C   0  0  0  0  0  0  0  0  0  0  0  0
    1.8764   -0.8031  -10.2393 O   0  0  0  0  0  0  0  0  0  0  0  0
    1.0094   -1.7763  -12.2218 C   0  0  0  0  0  0  0  0  0  0  0  0
   -0.0927   -0.9296  -12.2344 C   0  0  0  0  0  0  0  0  0  0  0  0
   -1.0481   -1.0837  -13.2429 C   0  0  0  0  0  0  0  0  0  0  0  0
   -2.2062   -0.3258  -13.3259 O   0  0  0  0  0  0  0  0  0  0  0  0
   -2.8380    0.0442  -12.1540 C   0  0  0  0  0  0  0  0  0  0  0  0
   -3.5797    1.2147  -12.1256 C   0  0  0  0  0  0  0  0  0  0  0  0
   -4.2144    1.6077  -10.9364 C   0  0  0  0  0  0  0  0  0  0  0  0
   -4.1820    0.8665   -9.7601 C   0  0  0  0  0  0  0  0  0  0  0  0
   -4.8085    1.2918   -8.5272 N   0  0  0  0  0  0  0  0  0  0  0  0
   -5.4829    2.4926   -8.4018 C   0  0  0  0  0  0  0  0  0  0  0  0
   -5.6273    3.3061   -9.3350 O   0  0  0  0  0  0  0  0  0  0  0  0
   -6.0329    2.7804   -7.1681 N   0  0  0  0  0  0  0  0  0  0  0  0
   -6.6988    4.0322   -6.9765 C   0  0  0  0  0  0  0  0  0  0  0  0
   -6.2285    4.9382   -6.0258 C   0  0  0  0  0  0  0  0  0  0  0  0
   -6.8604    6.1733   -5.8351 C   0  0  0  0  0  0  0  0  0  0  0  0
   -7.9729    6.5288   -6.5974 C   0  0  0  0  0  0  0  0  0  0  0  0
   -8.7093    8.0428   -6.1861 Cl  0  0  0  0  0  0  0  0  0  0  0  0
   -8.4409    5.6690   -7.6028 C   0  0  0  0  0  0  0  0  0  0  0  0
   -9.4915    6.1048   -8.5911 C   0  0  0  0  0  0  0  0  0  0  0  0
   -9.9209    7.3820   -8.4105 F   0  0  0  0  0  0  0  0  0  0  0  0
   -9.0377    6.0716   -9.8764 F   0  0  0  0  0  0  0  0  0  0  0  0
  -10.6244    5.3466   -8.5837 F   0  0  0  0  0  0  0  0  0  0  0  0
   -7.8205    4.3954   -7.7458 C   0  0  0  0  0  0  0  0  0  0  0  0
   -3.4835   -0.3714   -9.8255 C   0  0  0  0  0  0  0  0  0  0  0  0
   -2.8144   -0.7524  -11.0066 C   0  0  0  0  0  0  0  0  0  0  0  0
   -0.8298   -2.0325  -14.2361 C   0  0  0  0  0  0  0  0  0  0  0  0
    0.3045   -2.8294  -14.1439 C   0  0  0  0  0  0  0  0  0  0  0  0
    1.2294   -2.7347  -13.1594 N   0  0  0  0  0  0  0  0  0  0  0  0
    2.4575  -11.8077   -7.0543 N   0  0  0  0  0  0  0  0  0  0  0  0
    2.1793  -12.7864   -6.0820 O   0  0  0  0  0  0  0  0  0  0  0  0
    2.0793   -9.6842   -8.7017 H   0  0  0  0  0  0  0  0  0  0  0  0
    3.8224   -9.9081   -8.4263 H   0  0  0  0  0  0  0  0  0  0  0  0
    3.7983   -8.0175   -6.7879 H   0  0  0  0  0  0  0  0  0  0  0  0
    2.0724   -7.7966   -7.0576 H   0  0  0  0  0  0  0  0  0  0  0  0
    2.5117   -7.2921   -9.4727 H   0  0  0  0  0  0  0  0  0  0  0  0
    4.2425   -7.5140   -9.2026 H   0  0  0  0  0  0  0  0  0  0  0  0
    4.2171   -5.6612   -7.5133 H   0  0  0  0  0  0  0  0  0  0  0  0
    2.4864   -5.4399   -7.7809 H   0  0  0  0  0  0  0  0  0  0  0  0
    2.9252   -4.9224  -10.1866 H   0  0  0  0  0  0  0  0  0  0  0  0
    4.6564   -5.1384   -9.9224 H   0  0  0  0  0  0  0  0  0  0  0  0
    4.6309   -3.2789   -8.2368 H   0  0  0  0  0  0  0  0  0  0  0  0
    2.9031   -3.0591   -8.5040 H   0  0  0  0  0  0  0  0  0  0  0  0
    5.0905   -2.7328  -10.6392 H   0  0  0  0  0  0  0  0  0  0  0  0
    4.2391   -1.4155   -9.8193 H   0  0  0  0  0  0  0  0  0  0  0  0
    3.2204   -3.0894  -11.9931 H   0  0  0  0  0  0  0  0  0  0  0  0
   -0.2054   -0.1894  -11.4479 H   0  0  0  0  0  0  0  0  0  0  0  0
   -3.6878    1.8665  -12.9892 H   0  0  0  0  0  0  0  0  0  0  0  0
   -4.7426    2.5492  -10.9999 H   0  0  0  0  0  0  0  0  0  0  0  0
   -4.6957    0.7048   -7.7261 H   0  0  0  0  0  0  0  0  0  0  0  0
   -5.6097    2.3455   -6.3581 H   0  0  0  0  0  0  0  0  0  0  0  0
   -5.3395    4.7320   -5.4425 H   0  0  0  0  0  0  0  0  0  0  0  0
   -6.4680    6.8657   -5.0913 H   0  0  0  0  0  0  0  0  0  0  0  0
   -8.2375    3.6842   -8.4610 H   0  0  0  0  0  0  0  0  0  0  0  0
   -3.4472   -1.0650   -8.9927 H   0  0  0  0  0  0  0  0  0  0  0  0
   -2.2473   -1.6791  -11.0346 H   0  0  0  0  0  0  0  0  0  0  0  0
   -1.5314   -2.1684  -15.0525 H   0  0  0  0  0  0  0  0  0  0  0  0
    0.5040   -3.6005  -14.8838 H   0  0  0  0  0  0  0  0  0  0  0  0
    2.5510  -12.1473   -8.0074 H   0  0  0  0  0  0  0  0  0  0  0  0
    2.0974  -12.3097   -5.2325 H   0  0  0  0  0  0  0  0  0  0  0  0
  1  2  2  0  0  0  0
  2  3  1  0  0  0  0
  2 41  1  0  0  0  0
  3  4  1  0  0  0  0
  3 43  1  0  0  0  0
  3 44  1  0  0  0  0
  4  5  1  0  0  0  0
  4 45  1  0  0  0  0
  4 46  1  0  0  0  0
  5  6  1  0  0  0  0
  5 47  1  0  0  0  0
  5 48  1  0  0  0  0
  6  7  1  0  0  0  0
  6 49  1  0  0  0  0
  6 50  1  0  0  0  0
  7  8  1  0  0  0  0
  7 51  1  0  0  0  0
  7 52  1  0  0  0  0
  8  9  1  0  0  0  0
  8 53  1  0  0  0  0
  8 54  1  0  0  0  0
  9 10  1  0  0  0  0
  9 55  1  0  0  0  0
  9 56  1  0  0  0  0
 10 11  1  0  0  0  0
 10 57  1  0  0  0  0
 11 12  2  0  0  0  0
 11 13  1  0  0  0  0
 13 14  1  0  0  0  0
 13 40  2  0  0  0  0
 14 15  2  0  0  0  0
 14 58  1  0  0  0  0
 15 16  1  0  0  0  0
 15 38  1  0  0  0  0
 16 17  1  0  0  0  0
 17 18  1  0  0  0  0
 17 37  2  0  0  0  0
 18 19  2  0  0  0  0
 18 59  1  0  0  0  0
 19 20  1  0  0  0  0
 19 60  1  0  0  0  0
 20 21  1  0  0  0  0
 20 36  2  0  0  0  0
 21 22  1  0  0  0  0
 21 61  1  0  0  0  0
 22 23  2  0  0  0  0
 22 24  1  0  0  0  0
 24 25  1  0  0  0  0
 24 62  1  0  0  0  0
 25 26  1  0  0  0  0
 25 35  2  0  0  0  0
 26 27  2  0  0  0  0
 26 63  1  0  0  0  0
 27 28  1  0  0  0  0
 27 64  1  0  0  0  0
 28 29  1  0  0  0  0
 28 30  2  0  0  0  0
 30 31  1  0  0  0  0
 30 35  1  0  0  0  0
 31 32  1  0  0  0  0
 31 33  1  0  0  0  0
 31 34  1  0  0  0  0
 35 65  1  0  0  0  0
 36 37  1  0  0  0  0
 36 66  1  0  0  0  0
 37 67  1  0  0  0  0
 38 39  2  0  0  0  0
 38 68  1  0  0  0  0
 39 40  1  0  0  0  0
 39 69  1  0  0  0  0
 41 42  1  0  0  0  0
 41 70  1  0  0  0  0
 42 71  1  0  0  0  0
M  END
$$$$
