CHEMBL1254595
 OpenBabel04072215363D

 60 64  0  0  0  0  0  0  0  0999 V2000
    3.5477   -0.8078   -1.1324 C   0  0  0  0  0  0  0  0  0  0  0  0
    3.3347   -0.4746    0.2587 N   0  0  0  0  0  0  0  0  0  0  0  0
    3.9333    0.5801    0.9061 C   0  0  0  0  0  0  0  0  0  0  0  0
    3.4835    0.5950    2.2045 C   0  0  0  0  0  0  0  0  0  0  0  0
    2.5691   -0.4752    2.3461 C   0  0  0  0  0  0  0  0  0  0  0  0
    1.8737   -0.8507    3.4348 N   0  0  0  0  0  0  0  0  0  0  0  0
    1.0809   -1.9122    3.2211 C   0  0  0  0  0  0  0  0  0  0  0  0
    0.9352   -2.6144    2.0879 N   0  0  0  0  0  0  0  0  0  0  0  0
    1.6770   -2.2589    1.0153 C   0  0  0  0  0  0  0  0  0  0  0  0
    1.5943   -2.9973   -0.1597 O   0  0  0  0  0  0  0  0  0  0  0  0
    1.4205   -4.3646   -0.0365 C   0  0  0  0  0  0  0  0  0  0  0  0
    1.9936   -5.1148    0.9890 C   0  0  0  0  0  0  0  0  0  0  0  0
    1.7818   -6.4936    1.0682 C   0  0  0  0  0  0  0  0  0  0  0  0
    1.0220   -7.1709    0.1115 C   0  0  0  0  0  0  0  0  0  0  0  0
    0.7940   -8.5773    0.1762 N   0  0  0  0  0  0  0  0  0  0  0  0
    1.0986   -9.3977    1.2468 C   0  0  0  0  0  0  0  0  0  0  0  0
    1.5418   -9.0176    2.3291 O   0  0  0  0  0  0  0  0  0  0  0  0
    0.9008  -10.7503    0.9515 N   0  0  0  0  0  0  0  0  0  0  0  0
    1.3256  -11.6603    1.9537 C   0  0  0  0  0  0  0  0  0  0  0  0
    0.5701  -11.8583    3.0951 C   0  0  0  0  0  0  0  0  0  0  0  0
    1.1108  -12.5821    4.1675 C   0  0  0  0  0  0  0  0  0  0  0  0
    2.4201  -13.1253    4.1664 C   0  0  0  0  0  0  0  0  0  0  0  0
    2.8914  -13.7017    5.3341 N   0  0  0  0  0  0  0  0  0  0  0  0
    2.0282  -14.4954    6.2387 C   0  0  0  0  0  0  0  0  0  0  0  0
    2.1795  -14.0109    7.6908 C   0  0  0  0  0  0  0  0  0  0  0  0
    3.5500  -14.0569    8.1178 O   0  0  0  0  0  0  0  0  0  0  0  0
    4.3463  -13.1997    7.2888 C   0  0  0  0  0  0  0  0  0  0  0  0
    4.2869  -13.6112    5.8081 C   0  0  0  0  0  0  0  0  0  0  0  0
    3.1450  -12.9760    2.9594 C   0  0  0  0  0  0  0  0  0  0  0  0
    4.5293  -13.5053    2.6608 C   0  0  0  0  0  0  0  0  0  0  0  0
    5.0279  -14.4581    3.4900 F   0  0  0  0  0  0  0  0  0  0  0  0
    4.5952  -14.0728    1.4156 F   0  0  0  0  0  0  0  0  0  0  0  0
    5.4612  -12.5061    2.6381 F   0  0  0  0  0  0  0  0  0  0  0  0
    2.5805  -12.2461    1.8702 C   0  0  0  0  0  0  0  0  0  0  0  0
    0.4977   -6.4145   -0.9552 C   0  0  0  0  0  0  0  0  0  0  0  0
   -0.4088   -7.1774   -2.2191 Cl  0  0  0  0  0  0  0  0  0  0  0  0
    0.6966   -5.0243   -1.0306 C   0  0  0  0  0  0  0  0  0  0  0  0
    2.4970   -1.1395    1.1205 C   0  0  0  0  0  0  0  0  0  0  0  0
    4.2545   -0.1004   -1.5733 H   0  0  0  0  0  0  0  0  0  0  0  0
    2.5891   -0.7399   -1.6545 H   0  0  0  0  0  0  0  0  0  0  0  0
    3.9550   -1.8184   -1.1906 H   0  0  0  0  0  0  0  0  0  0  0  0
    4.6401    1.2257    0.3910 H   0  0  0  0  0  0  0  0  0  0  0  0
    3.7719    1.2935    2.9749 H   0  0  0  0  0  0  0  0  0  0  0  0
    0.4989   -2.2515    4.0711 H   0  0  0  0  0  0  0  0  0  0  0  0
    2.5954   -4.6456    1.7625 H   0  0  0  0  0  0  0  0  0  0  0  0
    2.2398   -7.0030    1.9104 H   0  0  0  0  0  0  0  0  0  0  0  0
    0.1981   -8.9665   -0.5476 H   0  0  0  0  0  0  0  0  0  0  0  0
    1.2539  -10.9533    0.0246 H   0  0  0  0  0  0  0  0  0  0  0  0
   -0.4176  -11.4156    3.1890 H   0  0  0  0  0  0  0  0  0  0  0  0
    0.4930  -12.6413    5.0609 H   0  0  0  0  0  0  0  0  0  0  0  0
    2.3568  -15.5400    6.1762 H   0  0  0  0  0  0  0  0  0  0  0  0
    0.9704  -14.4844    5.9608 H   0  0  0  0  0  0  0  0  0  0  0  0
    1.6070  -14.6586    8.3628 H   0  0  0  0  0  0  0  0  0  0  0  0
    1.8034  -12.9881    7.8126 H   0  0  0  0  0  0  0  0  0  0  0  0
    5.3805  -13.2629    7.6443 H   0  0  0  0  0  0  0  0  0  0  0  0
    4.0131  -12.1628    7.4228 H   0  0  0  0  0  0  0  0  0  0  0  0
    4.7447  -14.6005    5.7131 H   0  0  0  0  0  0  0  0  0  0  0  0
    4.8699  -12.8815    5.2370 H   0  0  0  0  0  0  0  0  0  0  0  0
    3.1897  -12.0730    0.9829 H   0  0  0  0  0  0  0  0  0  0  0  0
    0.2806   -4.4551   -1.8586 H   0  0  0  0  0  0  0  0  0  0  0  0
  1  2  1  0  0  0  0
  1 39  1  0  0  0  0
  1 40  1  0  0  0  0
  1 41  1  0  0  0  0
  2  3  1  0  0  0  0
  2 38  1  0  0  0  0
  3  4  2  0  0  0  0
  3 42  1  0  0  0  0
  4  5  1  0  0  0  0
  4 43  1  0  0  0  0
  5  6  1  0  0  0  0
  5 38  2  0  0  0  0
  6  7  2  0  0  0  0
  7  8  1  0  0  0  0
  7 44  1  0  0  0  0
  8  9  2  0  0  0  0
  9 10  1  0  0  0  0
  9 38  1  0  0  0  0
 10 11  1  0  0  0  0
 11 12  1  0  0  0  0
 11 37  2  0  0  0  0
 12 13  2  0  0  0  0
 12 45  1  0  0  0  0
 13 14  1  0  0  0  0
 13 46  1  0  0  0  0
 14 15  1  0  0  0  0
 14 35  2  0  0  0  0
 15 16  1  0  0  0  0
 15 47  1  0  0  0  0
 16 17  2  0  0  0  0
 16 18  1  0  0  0  0
 18 19  1  0  0  0  0
 18 48  1  0  0  0  0
 19 20  1  0  0  0  0
 19 34  2  0  0  0  0
 20 21  2  0  0  0  0
 20 49  1  0  0  0  0
 21 22  1  0  0  0  0
 21 50  1  0  0  0  0
 22 23  1  0  0  0  0
 22 29  2  0  0  0  0
 23 24  1  0  0  0  0
 23 28  1  0  0  0  0
 24 25  1  0  0  0  0
 24 51  1  0  0  0  0
 24 52  1  0  0  0  0
 25 26  1  0  0  0  0
 25 53  1  0  0  0  0
 25 54  1  0  0  0  0
 26 27  1  0  0  0  0
 27 28  1  0  0  0  0
 27 55  1  0  0  0  0
 27 56  1  0  0  0  0
 28 57  1  0  0  0  0
 28 58  1  0  0  0  0
 29 30  1  0  0  0  0
 29 34  1  0  0  0  0
 30 31  1  0  0  0  0
 30 32  1  0  0  0  0
 30 33  1  0  0  0  0
 34 59  1  0  0  0  0
 35 36  1  0  0  0  0
 35 37  1  0  0  0  0
 37 60  1  0  0  0  0
M  END
$$$$
