CHEMBL4167759
 OpenBabel04072215383D

 43 46  0  0  0  0  0  0  0  0999 V2000
   -1.3764    2.0750   -3.1300 N   0  0  0  0  0  0  0  0  0  0  0  0
   -1.6160    0.9646   -2.4183 C   0  0  0  0  0  0  0  0  0  0  0  0
   -2.1263   -0.1128   -3.0075 N   0  0  0  0  0  0  0  0  0  0  0  0
   -2.2588   -0.9922   -2.0118 N   0  0  0  0  0  0  0  0  0  0  0  0
   -1.8477   -0.5324   -0.7907 C   0  0  0  0  0  0  0  0  0  0  0  0
   -1.8613   -1.1622    0.4574 C   0  0  0  0  0  0  0  0  0  0  0  0
   -1.3684   -0.4437    1.5394 C   0  0  0  0  0  0  0  0  0  0  0  0
   -0.8876    0.8509    1.3654 C   0  0  0  0  0  0  0  0  0  0  0  0
   -0.8884    1.5061    0.1057 C   0  0  0  0  0  0  0  0  0  0  0  0
   -0.4557    2.9125    0.0111 C   0  0  0  0  0  0  0  0  0  0  0  0
    0.3658    3.4064   -1.0081 C   0  0  0  0  0  0  0  0  0  0  0  0
    0.6566    4.7777   -1.1116 C   0  0  0  0  0  0  0  0  0  0  0  0
    0.1836    5.6915   -0.1610 C   0  0  0  0  0  0  0  0  0  0  0  0
    0.4358    7.0619   -0.3990 N   0  0  0  0  0  0  0  0  0  0  0  0
    0.0375    8.2246    0.2640 C   0  0  0  0  0  0  0  0  0  0  0  0
   -0.7999    8.3775    1.7084 S   0  0  0  0  0  0  0  0  0  0  0  0
    0.3626    9.3282   -0.5405 N   0  0  0  0  0  0  0  0  0  0  0  0
    0.5761   10.6490   -0.0869 C   0  0  0  0  0  0  0  0  0  0  0  0
    0.1353   11.7132   -0.8811 C   0  0  0  0  0  0  0  0  0  0  0  0
    0.3278   13.0286   -0.4523 C   0  0  0  0  0  0  0  0  0  0  0  0
    0.9821   13.2731    0.7502 C   0  0  0  0  0  0  0  0  0  0  0  0
    1.1656   14.5370    1.1561 F   0  0  0  0  0  0  0  0  0  0  0  0
    1.4503   12.2184    1.5221 C   0  0  0  0  0  0  0  0  0  0  0  0
    2.0971   12.4544    2.6720 F   0  0  0  0  0  0  0  0  0  0  0  0
    1.2601   10.9066    1.1062 C   0  0  0  0  0  0  0  0  0  0  0  0
   -0.5308    5.1866    0.9159 C   0  0  0  0  0  0  0  0  0  0  0  0
   -0.8628    3.8309    0.9883 C   0  0  0  0  0  0  0  0  0  0  0  0
   -1.3871    0.7706   -1.0119 C   0  0  0  0  0  0  0  0  0  0  0  0
   -1.7576    2.0602   -4.0697 H   0  0  0  0  0  0  0  0  0  0  0  0
   -1.4779    2.9724   -2.6768 H   0  0  0  0  0  0  0  0  0  0  0  0
   -2.6497   -1.9017   -2.2241 H   0  0  0  0  0  0  0  0  0  0  0  0
   -2.2408   -2.1708    0.5856 H   0  0  0  0  0  0  0  0  0  0  0  0
   -1.3617   -0.8912    2.5310 H   0  0  0  0  0  0  0  0  0  0  0  0
   -0.5076    1.3724    2.2436 H   0  0  0  0  0  0  0  0  0  0  0  0
    0.7639    2.7305   -1.7639 H   0  0  0  0  0  0  0  0  0  0  0  0
    1.2365    5.1117   -1.9692 H   0  0  0  0  0  0  0  0  0  0  0  0
    1.0414    7.2449   -1.1897 H   0  0  0  0  0  0  0  0  0  0  0  0
    0.0276    9.2339   -1.4928 H   0  0  0  0  0  0  0  0  0  0  0  0
   -0.3962   11.5350   -1.8127 H   0  0  0  0  0  0  0  0  0  0  0  0
   -0.0348   13.8655   -1.0422 H   0  0  0  0  0  0  0  0  0  0  0  0
    1.6602   10.1061    1.7206 H   0  0  0  0  0  0  0  0  0  0  0  0
   -0.8724    5.7963    1.7386 H   0  0  0  0  0  0  0  0  0  0  0  0
   -1.4711    3.5107    1.8330 H   0  0  0  0  0  0  0  0  0  0  0  0
  1  2  1  0  0  0  0
  1 29  1  0  0  0  0
  1 30  1  0  0  0  0
  2  3  2  0  0  0  0
  2 28  1  0  0  0  0
  3  4  1  0  0  0  0
  4  5  1  0  0  0  0
  4 31  1  0  0  0  0
  5  6  1  0  0  0  0
  5 28  2  0  0  0  0
  6  7  2  0  0  0  0
  6 32  1  0  0  0  0
  7  8  1  0  0  0  0
  7 33  1  0  0  0  0
  8  9  2  0  0  0  0
  8 34  1  0  0  0  0
  9 10  1  0  0  0  0
  9 28  1  0  0  0  0
 10 11  1  0  0  0  0
 10 27  2  0  0  0  0
 11 12  2  0  0  0  0
 11 35  1  0  0  0  0
 12 13  1  0  0  0  0
 12 36  1  0  0  0  0
 13 14  1  0  0  0  0
 13 26  2  0  0  0  0
 14 15  1  0  0  0  0
 14 37  1  0  0  0  0
 15 16  2  0  0  0  0
 15 17  1  0  0  0  0
 17 18  1  0  0  0  0
 17 38  1  0  0  0  0
 18 19  1  0  0  0  0
 18 25  2  0  0  0  0
 19 20  2  0  0  0  0
 19 39  1  0  0  0  0
 20 21  1  0  0  0  0
 20 40  1  0  0  0  0
 21 22  1  0  0  0  0
 21 23  2  0  0  0  0
 23 24  1  0  0  0  0
 23 25  1  0  0  0  0
 25 41  1  0  0  0  0
 26 27  1  0  0  0  0
 26 42  1  0  0  0  0
 27 43  1  0  0  0  0
M  END
$$$$
