CHEMBL1995765
 OpenBabel04072215363D

 21 22  0  0  0  0  0  0  0  0999 V2000
    1.0927    0.1088   -0.4049 N   0  0  0  0  0  0  0  0  0  0  0  0
    2.4589    0.0243   -0.2553 C   0  0  0  0  0  0  0  0  0  0  0  0
    3.2666    1.0915   -0.1222 C   0  0  0  0  0  0  0  0  0  0  0  0
    4.6264    0.5503    0.1262 C   0  0  0  0  0  0  0  0  0  0  0  0
    5.6409    1.2192    0.1814 O   0  0  0  0  0  0  0  0  0  0  0  0
    4.4886   -0.8107    0.2558 N   0  0  0  0  0  0  0  0  0  0  0  0
    3.2077   -1.1324   -0.1282 N   0  0  0  0  0  0  0  0  0  0  0  0
    2.8308   -2.4905   -0.1294 C   0  0  0  0  0  0  0  0  0  0  0  0
    1.8400   -2.9346   -1.0095 C   0  0  0  0  0  0  0  0  0  0  0  0
    1.4367   -4.2674   -0.9900 C   0  0  0  0  0  0  0  0  0  0  0  0
    2.0179   -5.1331   -0.0773 C   0  0  0  0  0  0  0  0  0  0  0  0
    3.0101   -4.6346    0.7474 C   0  0  0  0  0  0  0  0  0  0  0  0
    3.4462   -3.3544    0.7185 N   0  0  0  0  0  0  0  0  0  0  0  0
    0.7186    1.0003   -0.0917 H   0  0  0  0  0  0  0  0  0  0  0  0
    0.6320   -0.6646    0.0748 H   0  0  0  0  0  0  0  0  0  0  0  0
    3.0373    2.1384   -0.1513 H   0  0  0  0  0  0  0  0  0  0  0  0
    5.2335   -1.4917    0.2137 H   0  0  0  0  0  0  0  0  0  0  0  0
    1.4028   -2.2514   -1.7319 H   0  0  0  0  0  0  0  0  0  0  0  0
    0.6761   -4.6187   -1.6814 H   0  0  0  0  0  0  0  0  0  0  0  0
    1.7121   -6.1713   -0.0153 H   0  0  0  0  0  0  0  0  0  0  0  0
    3.4944   -5.2700    1.4837 H   0  0  0  0  0  0  0  0  0  0  0  0
  1  2  1  0  0  0  0
  1 14  1  0  0  0  0
  1 15  1  0  0  0  0
  2  3  2  0  0  0  0
  2  7  1  0  0  0  0
  3  4  1  0  0  0  0
  3 16  1  0  0  0  0
  4  5  2  0  0  0  0
  4  6  1  0  0  0  0
  6  7  1  0  0  0  0
  6 17  1  0  0  0  0
  7  8  1  0  0  0  0
  8  9  1  0  0  0  0
  8 13  2  0  0  0  0
  9 10  2  0  0  0  0
  9 18  1  0  0  0  0
 10 11  1  0  0  0  0
 10 19  1  0  0  0  0
 11 12  2  0  0  0  0
 11 20  1  0  0  0  0
 12 13  1  0  0  0  0
 12 21  1  0  0  0  0
M  END
$$$$
