CHEMBL270489
 OpenBabel04072215363D

 61 65  0  0  0  0  0  0  0  0999 V2000
    2.9260    0.1138   -0.4712 C   0  0  0  0  0  0  0  0  0  0  0  0
    1.5021    0.0603   -0.0029 C   0  0  0  0  0  0  0  0  0  0  0  0
    0.9725   -1.1277    0.5022 C   0  0  0  0  0  0  0  0  0  0  0  0
   -0.3404   -1.1666    0.9627 C   0  0  0  0  0  0  0  0  0  0  0  0
   -1.1356   -0.0253    0.8990 C   0  0  0  0  0  0  0  0  0  0  0  0
   -2.3381   -0.1152    1.4803 F   0  0  0  0  0  0  0  0  0  0  0  0
   -0.6554    1.1688    0.3359 C   0  0  0  0  0  0  0  0  0  0  0  0
   -1.4177    2.3513    0.1520 N   0  0  0  0  0  0  0  0  0  0  0  0
   -2.7991    2.4125    0.1266 C   0  0  0  0  0  0  0  0  0  0  0  0
   -3.5512    1.4574    0.2405 O   0  0  0  0  0  0  0  0  0  0  0  0
   -3.2697    3.7017   -0.1257 N   0  0  0  0  0  0  0  0  0  0  0  0
   -4.6701    3.9116   -0.1004 C   0  0  0  0  0  0  0  0  0  0  0  0
   -5.4237    3.4648    0.9837 C   0  0  0  0  0  0  0  0  0  0  0  0
   -6.8163    3.4988    0.9332 C   0  0  0  0  0  0  0  0  0  0  0  0
   -7.5030    4.0055   -0.1845 C   0  0  0  0  0  0  0  0  0  0  0  0
   -8.9812    4.0157   -0.1899 C   0  0  0  0  0  0  0  0  0  0  0  0
   -9.6854    4.3611    0.9880 C   0  0  0  0  0  0  0  0  0  0  0  0
  -11.0774    4.3742    1.0593 C   0  0  0  0  0  0  0  0  0  0  0  0
  -11.8778    4.0839   -0.0547 C   0  0  0  0  0  0  0  0  0  0  0  0
  -13.3798    4.1673    0.0525 C   0  0  0  0  0  0  0  0  0  0  0  0
  -14.1348    2.9781    0.4492 N   0  0  0  0  0  0  0  0  0  0  0  0
  -13.7040    2.2539    1.6500 C   0  0  0  0  0  0  0  0  0  0  0  0
  -12.7007    1.1157    1.3882 C   0  0  0  0  0  0  0  0  0  0  0  0
  -13.1648    0.2211    0.3695 O   0  0  0  0  0  0  0  0  0  0  0  0
  -13.4422    0.9252   -0.8473 C   0  0  0  0  0  0  0  0  0  0  0  0
  -14.4716    2.0413   -0.6279 C   0  0  0  0  0  0  0  0  0  0  0  0
  -11.1604    3.7815   -1.2207 C   0  0  0  0  0  0  0  0  0  0  0  0
  -11.7201    3.5201   -2.4333 O   0  0  0  0  0  0  0  0  0  0  0  0
  -10.7395    3.1544   -3.3307 N   0  0  0  0  0  0  0  0  0  0  0  0
   -9.5911    3.1944   -2.6527 C   0  0  0  0  0  0  0  0  0  0  0  0
   -8.4197    2.7640   -3.1685 N   0  0  0  0  0  0  0  0  0  0  0  0
   -9.7733    3.6874   -1.3229 C   0  0  0  0  0  0  0  0  0  0  0  0
   -6.7193    4.5289   -1.2300 C   0  0  0  0  0  0  0  0  0  0  0  0
   -5.3145    4.4889   -1.1907 C   0  0  0  0  0  0  0  0  0  0  0  0
    0.6834    1.2045   -0.0834 C   0  0  0  0  0  0  0  0  0  0  0  0
    3.4281   -0.8537   -0.3399 H   0  0  0  0  0  0  0  0  0  0  0  0
    3.4832    0.8567    0.1046 H   0  0  0  0  0  0  0  0  0  0  0  0
    2.9671    0.3663   -1.5344 H   0  0  0  0  0  0  0  0  0  0  0  0
    1.5777   -2.0308    0.5638 H   0  0  0  0  0  0  0  0  0  0  0  0
   -0.7576   -2.0747    1.3874 H   0  0  0  0  0  0  0  0  0  0  0  0
   -0.9229    3.1816   -0.1301 H   0  0  0  0  0  0  0  0  0  0  0  0
   -2.7620    4.1887   -0.8486 H   0  0  0  0  0  0  0  0  0  0  0  0
   -4.9369    3.0450    1.8614 H   0  0  0  0  0  0  0  0  0  0  0  0
   -7.3598    3.0906    1.7830 H   0  0  0  0  0  0  0  0  0  0  0  0
   -9.1325    4.6328    1.8869 H   0  0  0  0  0  0  0  0  0  0  0  0
  -11.5454    4.6357    2.0072 H   0  0  0  0  0  0  0  0  0  0  0  0
  -13.7822    4.5685   -0.8863 H   0  0  0  0  0  0  0  0  0  0  0  0
  -13.6105    4.9512    0.7873 H   0  0  0  0  0  0  0  0  0  0  0  0
  -14.6072    1.7935    2.0745 H   0  0  0  0  0  0  0  0  0  0  0  0
  -13.3327    2.9326    2.4252 H   0  0  0  0  0  0  0  0  0  0  0  0
  -12.5836    0.5228    2.3019 H   0  0  0  0  0  0  0  0  0  0  0  0
  -11.7092    1.4899    1.1169 H   0  0  0  0  0  0  0  0  0  0  0  0
  -13.8491    0.1969   -1.5565 H   0  0  0  0  0  0  0  0  0  0  0  0
  -12.5079    1.3018   -1.2693 H   0  0  0  0  0  0  0  0  0  0  0  0
  -15.4162    1.5622   -0.3347 H   0  0  0  0  0  0  0  0  0  0  0  0
  -14.6851    2.5654   -1.5659 H   0  0  0  0  0  0  0  0  0  0  0  0
   -8.4893    2.2088   -4.0160 H   0  0  0  0  0  0  0  0  0  0  0  0
   -7.7248    2.3880   -2.5280 H   0  0  0  0  0  0  0  0  0  0  0  0
   -7.1949    4.9533   -2.1131 H   0  0  0  0  0  0  0  0  0  0  0  0
   -4.7519    4.8400   -2.0508 H   0  0  0  0  0  0  0  0  0  0  0  0
    1.0994    2.1168   -0.5039 H   0  0  0  0  0  0  0  0  0  0  0  0
  1  2  1  0  0  0  0
  1 36  1  0  0  0  0
  1 37  1  0  0  0  0
  1 38  1  0  0  0  0
  2  3  1  0  0  0  0
  2 35  2  0  0  0  0
  3  4  2  0  0  0  0
  3 39  1  0  0  0  0
  4  5  1  0  0  0  0
  4 40  1  0  0  0  0
  5  6  1  0  0  0  0
  5  7  2  0  0  0  0
  7  8  1  0  0  0  0
  7 35  1  0  0  0  0
  8  9  1  0  0  0  0
  8 41  1  0  0  0  0
  9 10  2  0  0  0  0
  9 11  1  0  0  0  0
 11 12  1  0  0  0  0
 11 42  1  0  0  0  0
 12 13  1  0  0  0  0
 12 34  2  0  0  0  0
 13 14  2  0  0  0  0
 13 43  1  0  0  0  0
 14 15  1  0  0  0  0
 14 44  1  0  0  0  0
 15 16  1  0  0  0  0
 15 33  2  0  0  0  0
 16 17  1  0  0  0  0
 16 32  2  0  0  0  0
 17 18  2  0  0  0  0
 17 45  1  0  0  0  0
 18 19  1  0  0  0  0
 18 46  1  0  0  0  0
 19 20  1  0  0  0  0
 19 27  2  0  0  0  0
 20 21  1  0  0  0  0
 20 47  1  0  0  0  0
 20 48  1  0  0  0  0
 21 22  1  0  0  0  0
 21 26  1  0  0  0  0
 22 23  1  0  0  0  0
 22 49  1  0  0  0  0
 22 50  1  0  0  0  0
 23 24  1  0  0  0  0
 23 51  1  0  0  0  0
 23 52  1  0  0  0  0
 24 25  1  0  0  0  0
 25 26  1  0  0  0  0
 25 53  1  0  0  0  0
 25 54  1  0  0  0  0
 26 55  1  0  0  0  0
 26 56  1  0  0  0  0
 27 28  1  0  0  0  0
 27 32  1  0  0  0  0
 28 29  1  0  0  0  0
 29 30  2  0  0  0  0
 30 31  1  0  0  0  0
 30 32  1  0  0  0  0
 31 57  1  0  0  0  0
 31 58  1  0  0  0  0
 33 34  1  0  0  0  0
 33 59  1  0  0  0  0
 34 60  1  0  0  0  0
 35 61  1  0  0  0  0
M  END
$$$$
