CHEMBL2003456
 OpenBabel04072215363D

 25 27  0  0  0  0  0  0  0  0999 V2000
    1.4209   -0.0398    0.6041 O   0  0  0  0  0  0  0  0  0  0  0  0
    2.5624   -0.0632    0.1814 C   0  0  0  0  0  0  0  0  0  0  0  0
    3.3200   -1.2104   -0.0992 N   0  0  0  0  0  0  0  0  0  0  0  0
    4.5604   -0.8006   -0.5713 C   0  0  0  0  0  0  0  0  0  0  0  0
    5.6451   -1.5345   -0.9877 C   0  0  0  0  0  0  0  0  0  0  0  0
    6.7733   -0.8238   -1.4413 C   0  0  0  0  0  0  0  0  0  0  0  0
    7.9862   -1.5200   -1.9285 C   0  0  0  0  0  0  0  0  0  0  0  0
    7.9000   -2.7453   -2.6170 C   0  0  0  0  0  0  0  0  0  0  0  0
    9.0426   -3.4119   -3.0715 C   0  0  0  0  0  0  0  0  0  0  0  0
   10.3015   -2.8614   -2.8588 C   0  0  0  0  0  0  0  0  0  0  0  0
   10.4176   -1.6480   -2.1894 C   0  0  0  0  0  0  0  0  0  0  0  0
    9.2737   -0.9891   -1.7253 C   0  0  0  0  0  0  0  0  0  0  0  0
    6.6857    0.5924   -1.4153 C   0  0  0  0  0  0  0  0  0  0  0  0
    5.6184    1.3283   -0.9915 N   0  0  0  0  0  0  0  0  0  0  0  0
    4.5919    0.5864   -0.5881 C   0  0  0  0  0  0  0  0  0  0  0  0
    3.3672    1.0372   -0.1220 N   0  0  0  0  0  0  0  0  0  0  0  0
    2.9814   -2.1509    0.0199 H   0  0  0  0  0  0  0  0  0  0  0  0
    5.6225   -2.6177   -0.9548 H   0  0  0  0  0  0  0  0  0  0  0  0
    6.9330   -3.1991   -2.8238 H   0  0  0  0  0  0  0  0  0  0  0  0
    8.9451   -4.3596   -3.5952 H   0  0  0  0  0  0  0  0  0  0  0  0
   11.1900   -3.3767   -3.2140 H   0  0  0  0  0  0  0  0  0  0  0  0
   11.3995   -1.2123   -2.0217 H   0  0  0  0  0  0  0  0  0  0  0  0
    9.4127   -0.0537   -1.1870 H   0  0  0  0  0  0  0  0  0  0  0  0
    7.5137    1.2055   -1.7680 H   0  0  0  0  0  0  0  0  0  0  0  0
    3.1048    2.0025   -0.0302 H   0  0  0  0  0  0  0  0  0  0  0  0
  1  2  2  0  0  0  0
  2  3  1  0  0  0  0
  2 16  1  0  0  0  0
  3  4  1  0  0  0  0
  3 17  1  0  0  0  0
  4  5  1  0  0  0  0
  4 15  2  0  0  0  0
  5  6  2  0  0  0  0
  5 18  1  0  0  0  0
  6  7  1  0  0  0  0
  6 13  1  0  0  0  0
  7  8  1  0  0  0  0
  7 12  2  0  0  0  0
  8  9  2  0  0  0  0
  8 19  1  0  0  0  0
  9 10  1  0  0  0  0
  9 20  1  0  0  0  0
 10 11  2  0  0  0  0
 10 21  1  0  0  0  0
 11 12  1  0  0  0  0
 11 22  1  0  0  0  0
 12 23  1  0  0  0  0
 13 14  2  0  0  0  0
 13 24  1  0  0  0  0
 14 15  1  0  0  0  0
 15 16  1  0  0  0  0
 16 25  1  0  0  0  0
M  END
$$$$
