CHEMBL248781
 OpenBabel04072215363D

 39 41  0  0  0  0  0  0  0  0999 V2000
    2.0098   -0.8774    0.7905 O   0  0  0  0  0  0  0  0  0  0  0  0
    2.1735    0.0286   -0.0182 C   0  0  0  0  0  0  0  0  0  0  0  0
    1.5799    1.2854    0.0258 N   0  0  0  0  0  0  0  0  0  0  0  0
    0.6214    1.7429    0.9568 C   0  0  0  0  0  0  0  0  0  0  0  0
    0.1912    1.0037    2.0612 C   0  0  0  0  0  0  0  0  0  0  0  0
   -0.7814    1.5111    2.9314 C   0  0  0  0  0  0  0  0  0  0  0  0
   -1.3433    2.7625    2.7028 C   0  0  0  0  0  0  0  0  0  0  0  0
   -2.5555    3.3175    3.8052 Cl  0  0  0  0  0  0  0  0  0  0  0  0
   -0.9260    3.5169    1.6029 C   0  0  0  0  0  0  0  0  0  0  0  0
   -1.5867    5.0739    1.2443 Cl  0  0  0  0  0  0  0  0  0  0  0  0
    0.0578    3.0087    0.7413 C   0  0  0  0  0  0  0  0  0  0  0  0
    3.0512   -0.2336   -1.2007 C   0  0  0  0  0  0  0  0  0  0  0  0
    2.7166    0.2970   -2.4555 C   0  0  0  0  0  0  0  0  0  0  0  0
    3.5007   -0.0059   -3.5617 C   0  0  0  0  0  0  0  0  0  0  0  0
    4.5832   -0.8432   -3.3792 C   0  0  0  0  0  0  0  0  0  0  0  0
    4.9374   -1.3614   -2.1839 N   0  0  0  0  0  0  0  0  0  0  0  0
    4.1807   -1.0698   -1.0973 C   0  0  0  0  0  0  0  0  0  0  0  0
    4.6178   -1.5265    0.1471 N   0  0  0  0  0  0  0  0  0  0  0  0
    5.8256   -2.3322    0.1852 C   0  0  0  0  0  0  0  0  0  0  0  0
    6.2252   -2.4985    1.6321 C   0  0  0  0  0  0  0  0  0  0  0  0
    6.0991   -3.7215    2.2940 C   0  0  0  0  0  0  0  0  0  0  0  0
    6.4260   -3.7808    3.6412 C   0  0  0  0  0  0  0  0  0  0  0  0
    6.8654   -2.7249    4.3599 N   0  0  0  0  0  0  0  0  0  0  0  0
    6.9807   -1.5526    3.7015 C   0  0  0  0  0  0  0  0  0  0  0  0
    6.6829   -1.3929    2.3590 C   0  0  0  0  0  0  0  0  0  0  0  0
    1.8549    1.9533   -0.6827 H   0  0  0  0  0  0  0  0  0  0  0  0
    0.6003    0.0208    2.2855 H   0  0  0  0  0  0  0  0  0  0  0  0
   -1.0933    0.9111    3.7828 H   0  0  0  0  0  0  0  0  0  0  0  0
    0.3634    3.6094   -0.1122 H   0  0  0  0  0  0  0  0  0  0  0  0
    1.8371    0.9177   -2.5929 H   0  0  0  0  0  0  0  0  0  0  0  0
    3.2641    0.3873   -4.5440 H   0  0  0  0  0  0  0  0  0  0  0  0
    5.2175   -1.1309   -4.2132 H   0  0  0  0  0  0  0  0  0  0  0  0
    3.8360   -1.9259    0.6721 H   0  0  0  0  0  0  0  0  0  0  0  0
    6.6551   -1.8347   -0.3350 H   0  0  0  0  0  0  0  0  0  0  0  0
    5.6727   -3.3093   -0.2900 H   0  0  0  0  0  0  0  0  0  0  0  0
    5.7427   -4.6096    1.7837 H   0  0  0  0  0  0  0  0  0  0  0  0
    6.3321   -4.7082    4.1988 H   0  0  0  0  0  0  0  0  0  0  0  0
    7.3203   -0.7131    4.3007 H   0  0  0  0  0  0  0  0  0  0  0  0
    6.7796   -0.4200    1.8877 H   0  0  0  0  0  0  0  0  0  0  0  0
  1  2  2  0  0  0  0
  2  3  1  0  0  0  0
  2 12  1  0  0  0  0
  3  4  1  0  0  0  0
  3 26  1  0  0  0  0
  4  5  1  0  0  0  0
  4 11  2  0  0  0  0
  5  6  2  0  0  0  0
  5 27  1  0  0  0  0
  6  7  1  0  0  0  0
  6 28  1  0  0  0  0
  7  8  1  0  0  0  0
  7  9  2  0  0  0  0
  9 10  1  0  0  0  0
  9 11  1  0  0  0  0
 11 29  1  0  0  0  0
 12 13  1  0  0  0  0
 12 17  2  0  0  0  0
 13 14  2  0  0  0  0
 13 30  1  0  0  0  0
 14 15  1  0  0  0  0
 14 31  1  0  0  0  0
 15 16  2  0  0  0  0
 15 32  1  0  0  0  0
 16 17  1  0  0  0  0
 17 18  1  0  0  0  0
 18 19  1  0  0  0  0
 18 33  1  0  0  0  0
 19 20  1  0  0  0  0
 19 34  1  0  0  0  0
 19 35  1  0  0  0  0
 20 21  1  0  0  0  0
 20 25  2  0  0  0  0
 21 22  2  0  0  0  0
 21 36  1  0  0  0  0
 22 23  1  0  0  0  0
 22 37  1  0  0  0  0
 23 24  2  0  0  0  0
 24 25  1  0  0  0  0
 24 38  1  0  0  0  0
 25 39  1  0  0  0  0
M  END
$$$$
