CHEMBL3960830
 OpenBabel04072215373D

 47 50  0  0  0  0  0  0  0  0999 V2000
    9.9758   -0.2587    1.7839 C   0  0  0  0  0  0  0  0  0  0  0  0
   10.2400   -1.2185    0.7693 O   0  0  0  0  0  0  0  0  0  0  0  0
    9.0101   -1.7455    0.3417 N   0  0  0  0  0  0  0  0  0  0  0  0
    8.3937   -1.1283   -0.7197 C   0  0  0  0  0  0  0  0  0  0  0  0
    8.7705   -0.0752   -1.2167 O   0  0  0  0  0  0  0  0  0  0  0  0
    7.2227   -1.8431   -1.3048 C   0  0  0  0  0  0  0  0  0  0  0  0
    7.0669   -1.7065   -2.6980 C   0  0  0  0  0  0  0  0  0  0  0  0
    6.0484   -2.3772   -3.3751 C   0  0  0  0  0  0  0  0  0  0  0  0
    5.1780   -3.1981   -2.6719 C   0  0  0  0  0  0  0  0  0  0  0  0
    5.3034   -3.3217   -1.2873 C   0  0  0  0  0  0  0  0  0  0  0  0
    6.2996   -2.6310   -0.5790 C   0  0  0  0  0  0  0  0  0  0  0  0
    6.2991   -2.9001    1.1893 S   0  0  0  0  0  0  0  0  0  0  0  0
    5.2909   -1.5460    1.7887 C   0  0  0  0  0  0  0  0  0  0  0  0
    3.8868   -1.5696    1.7266 C   0  0  0  0  0  0  0  0  0  0  0  0
    3.1063   -0.4980    2.2258 C   0  0  0  0  0  0  0  0  0  0  0  0
    3.7679    0.5478    2.8969 C   0  0  0  0  0  0  0  0  0  0  0  0
    3.4823    1.7726    3.6034 C   0  0  0  0  0  0  0  0  0  0  0  0
    3.6454    3.1387    3.0947 C   0  0  0  0  0  0  0  0  0  0  0  0
    4.2388    3.4571    1.9255 C   0  0  0  0  0  0  0  0  0  0  0  0
    5.1422    4.6240    1.7952 C   0  0  0  0  0  0  0  0  0  0  0  0
    5.7589    4.8866    0.5740 C   0  0  0  0  0  0  0  0  0  0  0  0
    6.7944    5.8191    0.5170 C   0  0  0  0  0  0  0  0  0  0  0  0
    7.1984    6.4647    1.6807 C   0  0  0  0  0  0  0  0  0  0  0  0
    6.5335    6.1558    2.8547 C   0  0  0  0  0  0  0  0  0  0  0  0
    5.5190    5.2611    2.9350 N   0  0  0  0  0  0  0  0  0  0  0  0
    4.1208    1.6156    4.7842 N   0  0  0  0  0  0  0  0  0  0  0  0
    5.2824    1.0780    4.3468 N   0  0  0  0  0  0  0  0  0  0  0  0
    5.1069    0.3412    3.1991 C   0  0  0  0  0  0  0  0  0  0  0  0
    5.9360   -0.5539    2.5326 C   0  0  0  0  0  0  0  0  0  0  0  0
   10.9185    0.0079    2.2733 H   0  0  0  0  0  0  0  0  0  0  0  0
    9.3039   -0.6753    2.5398 H   0  0  0  0  0  0  0  0  0  0  0  0
    9.5372    0.6444    1.3461 H   0  0  0  0  0  0  0  0  0  0  0  0
    8.8636   -2.7410    0.5386 H   0  0  0  0  0  0  0  0  0  0  0  0
    7.7577   -1.0828   -3.2657 H   0  0  0  0  0  0  0  0  0  0  0  0
    5.9447   -2.2663   -4.4522 H   0  0  0  0  0  0  0  0  0  0  0  0
    4.3962   -3.7447   -3.1939 H   0  0  0  0  0  0  0  0  0  0  0  0
    4.6087   -3.9735   -0.7596 H   0  0  0  0  0  0  0  0  0  0  0  0
    3.3779   -2.4476    1.3311 H   0  0  0  0  0  0  0  0  0  0  0  0
    2.0209   -0.5486    2.1989 H   0  0  0  0  0  0  0  0  0  0  0  0
    3.6473    3.8885    3.8859 H   0  0  0  0  0  0  0  0  0  0  0  0
    4.3131    2.7307    1.1267 H   0  0  0  0  0  0  0  0  0  0  0  0
    5.4805    4.3397   -0.3198 H   0  0  0  0  0  0  0  0  0  0  0  0
    7.3054    6.0166   -0.4201 H   0  0  0  0  0  0  0  0  0  0  0  0
    8.0158    7.1755    1.6736 H   0  0  0  0  0  0  0  0  0  0  0  0
    6.8241    6.6165    3.7938 H   0  0  0  0  0  0  0  0  0  0  0  0
    6.0853    1.0863    4.9631 H   0  0  0  0  0  0  0  0  0  0  0  0
    7.0034   -0.5705    2.7084 H   0  0  0  0  0  0  0  0  0  0  0  0
  1  2  1  0  0  0  0
  1 30  1  0  0  0  0
  1 31  1  0  0  0  0
  1 32  1  0  0  0  0
  2  3  1  0  0  0  0
  3  4  1  0  0  0  0
  3 33  1  0  0  0  0
  4  5  2  0  0  0  0
  4  6  1  0  0  0  0
  6  7  1  0  0  0  0
  6 11  2  0  0  0  0
  7  8  2  0  0  0  0
  7 34  1  0  0  0  0
  8  9  1  0  0  0  0
  8 35  1  0  0  0  0
  9 10  2  0  0  0  0
  9 36  1  0  0  0  0
 10 11  1  0  0  0  0
 10 37  1  0  0  0  0
 11 12  1  0  0  0  0
 12 13  1  0  0  0  0
 13 14  1  0  0  0  0
 13 29  2  0  0  0  0
 14 15  2  0  0  0  0
 14 38  1  0  0  0  0
 15 16  1  0  0  0  0
 15 39  1  0  0  0  0
 16 17  1  0  0  0  0
 16 28  2  0  0  0  0
 17 18  1  0  0  0  0
 17 26  2  0  0  0  0
 18 19  2  0  0  0  0
 18 40  1  0  0  0  0
 19 20  1  0  0  0  0
 19 41  1  0  0  0  0
 20 21  1  0  0  0  0
 20 25  2  0  0  0  0
 21 22  2  0  0  0  0
 21 42  1  0  0  0  0
 22 23  1  0  0  0  0
 22 43  1  0  0  0  0
 23 24  2  0  0  0  0
 23 44  1  0  0  0  0
 24 25  1  0  0  0  0
 24 45  1  0  0  0  0
 26 27  1  0  0  0  0
 27 28  1  0  0  0  0
 27 46  1  0  0  0  0
 28 29  1  0  0  0  0
 29 47  1  0  0  0  0
M  END
$$$$
