CHEMBL3940725
 OpenBabel04072215373D

 56 60  0  0  0  0  0  0  0  0999 V2000
    0.7863    0.3735    0.1481 C   0  0  0  0  0  0  0  0  0  0  0  0
    1.9351    0.7845   -0.5912 O   0  0  0  0  0  0  0  0  0  0  0  0
    2.7965    1.6083    0.0775 C   0  0  0  0  0  0  0  0  0  0  0  0
    2.6337    2.0898    1.3294 C   0  0  0  0  0  0  0  0  0  0  0  0
    3.6611    2.8114    1.9293 C   0  0  0  0  0  0  0  0  0  0  0  0
    3.6145    3.1884    3.2410 O   0  0  0  0  0  0  0  0  0  0  0  0
    2.4284    2.7717    3.9110 C   0  0  0  0  0  0  0  0  0  0  0  0
    4.8220    3.1495    1.2303 C   0  0  0  0  0  0  0  0  0  0  0  0
    5.0955    2.6273   -0.0085 C   0  0  0  0  0  0  0  0  0  0  0  0
    6.3208    2.8769   -0.6542 N   0  0  0  0  0  0  0  0  0  0  0  0
    6.8340    1.8102   -1.6637 C   0  0  0  0  0  0  0  0  0  0  0  0
    6.4655    1.8534   -3.1584 C   0  0  0  0  0  0  0  0  0  0  0  0
    5.6187    2.7521   -3.7708 C   0  0  0  0  0  0  0  0  0  0  0  0
    5.8292    2.8292   -5.1760 C   0  0  0  0  0  0  0  0  0  0  0  0
    6.7645    1.9287   -5.6155 C   0  0  0  0  0  0  0  0  0  0  0  0
    7.3371    1.8153   -7.2428 Cl  0  0  0  0  0  0  0  0  0  0  0  0
    7.2113    0.8253   -4.3897 S   0  0  0  0  0  0  0  0  0  0  0  0
    7.3624    3.7783   -0.1861 C   0  0  0  0  0  0  0  0  0  0  0  0
    8.0782    4.3879   -1.1638 C   0  0  0  0  0  0  0  0  0  0  0  0
    9.0829    5.1980   -0.7941 C   0  0  0  0  0  0  0  0  0  0  0  0
    9.5025    5.4369    0.4565 C   0  0  0  0  0  0  0  0  0  0  0  0
   10.7542    5.4207    0.3315 N   0  0  0  0  0  0  0  0  0  0  0  0
   11.2029    6.6276    0.1745 C   0  0  0  0  0  0  0  0  0  0  0  0
   11.4150    7.3358    1.2295 C   0  0  0  0  0  0  0  0  0  0  0  0
   13.0226    7.9578    0.5450 C   0  0  0  0  0  0  0  0  0  0  0  0
   14.0807    7.5500   -0.6000 C   0  0  0  0  0  0  0  0  0  0  0  0
   15.0586    8.4559   -0.9188 N   0  0  0  0  0  0  0  0  0  0  0  0
   14.7772    9.5518   -0.1953 N   0  0  0  0  0  0  0  0  0  0  0  0
   15.6083   10.8043   -0.3340 C   0  0  0  0  0  0  0  0  0  0  0  0
   13.5809    9.2759    0.6038 C   0  0  0  0  0  0  0  0  0  0  0  0
   10.3457    6.4908    2.2041 N   0  0  0  0  0  0  0  0  0  0  0  0
    9.1027    5.3373    1.6621 C   0  0  0  0  0  0  0  0  0  0  0  0
    7.8020    4.1983    1.2252 C   0  0  0  0  0  0  0  0  0  0  0  0
    4.0344    1.8535   -0.5157 C   0  0  0  0  0  0  0  0  0  0  0  0
    0.2227   -0.3519   -0.4409 H   0  0  0  0  0  0  0  0  0  0  0  0
    0.1402    1.2343    0.3473 H   0  0  0  0  0  0  0  0  0  0  0  0
    1.0696   -0.1213    1.0859 H   0  0  0  0  0  0  0  0  0  0  0  0
    1.7340    1.8176    1.8450 H   0  0  0  0  0  0  0  0  0  0  0  0
    2.4887    3.1265    4.9351 H   0  0  0  0  0  0  0  0  0  0  0  0
    2.3352    1.6760    3.9321 H   0  0  0  0  0  0  0  0  0  0  0  0
    1.5428    3.2208    3.4431 H   0  0  0  0  0  0  0  0  0  0  0  0
    5.5302    3.7934    1.7043 H   0  0  0  0  0  0  0  0  0  0  0  0
    6.6149    0.8124   -1.2573 H   0  0  0  0  0  0  0  0  0  0  0  0
    7.9303    1.9023   -1.6686 H   0  0  0  0  0  0  0  0  0  0  0  0
    4.9598    3.4058   -3.2084 H   0  0  0  0  0  0  0  0  0  0  0  0
    5.3078    3.5165   -5.8275 H   0  0  0  0  0  0  0  0  0  0  0  0
    8.0587    4.1889   -2.2165 H   0  0  0  0  0  0  0  0  0  0  0  0
    9.7574    5.5834   -1.5308 H   0  0  0  0  0  0  0  0  0  0  0  0
   11.5563    6.7501   -0.8008 H   0  0  0  0  0  0  0  0  0  0  0  0
   14.2361    6.6455   -1.1943 H   0  0  0  0  0  0  0  0  0  0  0  0
   16.5201   10.6891   -0.9646 H   0  0  0  0  0  0  0  0  0  0  0  0
   15.9633   11.1689    0.6427 H   0  0  0  0  0  0  0  0  0  0  0  0
   15.0207   11.6072   -0.8045 H   0  0  0  0  0  0  0  0  0  0  0  0
   13.3187   10.1288    1.1804 H   0  0  0  0  0  0  0  0  0  0  0  0
    7.2566    3.5060    1.9138 H   0  0  0  0  0  0  0  0  0  0  0  0
    4.1244    1.2886   -1.4103 H   0  0  0  0  0  0  0  0  0  0  0  0
  1  2  1  0  0  0  0
  1 35  1  0  0  0  0
  1 36  1  0  0  0  0
  1 37  1  0  0  0  0
  2  3  1  0  0  0  0
  3  4  1  0  0  0  0
  3 34  2  0  0  0  0
  4  5  2  0  0  0  0
  4 38  1  0  0  0  0
  5  6  1  0  0  0  0
  5  8  1  0  0  0  0
  6  7  1  0  0  0  0
  7 39  1  0  0  0  0
  7 40  1  0  0  0  0
  7 41  1  0  0  0  0
  8  9  2  0  0  0  0
  8 42  1  0  0  0  0
  9 10  1  0  0  0  0
  9 34  1  0  0  0  0
 10 11  1  0  0  0  0
 10 18  1  0  0  0  0
 11 12  1  0  0  0  0
 11 43  1  0  0  0  0
 11 44  1  0  0  0  0
 12 13  2  0  0  0  0
 12 17  1  0  0  0  0
 13 14  1  0  0  0  0
 13 45  1  0  0  0  0
 14 15  2  0  0  0  0
 14 46  1  0  0  0  0
 15 16  1  0  0  0  0
 15 17  1  0  0  0  0
 18 19  1  0  0  0  0
 18 33  2  0  0  0  0
 19 20  2  0  0  0  0
 19 47  1  0  0  0  0
 20 21  1  0  0  0  0
 20 48  1  0  0  0  0
 21 22  1  0  0  0  0
 21 32  2  0  0  0  0
 22 23  2  0  0  0  0
 23 24  1  0  0  0  0
 23 49  1  0  0  0  0
 24 25  1  0  0  0  0
 24 31  2  0  0  0  0
 25 26  1  0  0  0  0
 25 30  2  0  0  0  0
 26 27  2  0  0  0  0
 26 50  1  0  0  0  0
 27 28  1  0  0  0  0
 28 29  1  0  0  0  0
 28 30  1  0  0  0  0
 29 51  1  0  0  0  0
 29 52  1  0  0  0  0
 29 53  1  0  0  0  0
 30 54  1  0  0  0  0
 31 32  1  0  0  0  0
 32 33  1  0  0  0  0
 33 55  1  0  0  0  0
 34 56  1  0  0  0  0
M  END
$$$$
