CHEMBL1558704
 OpenBabel04072215363D

 46 49  0  0  0  0  0  0  0  0999 V2000
    1.4980   -0.0309    1.4975 C   0  0  0  0  0  0  0  0  0  0  0  0
    2.9190   -0.1718    1.0382 C   0  0  0  0  0  0  0  0  0  0  0  0
    3.6634    0.9513    0.6728 C   0  0  0  0  0  0  0  0  0  0  0  0
    4.9572    0.7914    0.1808 C   0  0  0  0  0  0  0  0  0  0  0  0
    5.6469    1.8874   -0.1796 F   0  0  0  0  0  0  0  0  0  0  0  0
    5.5614   -0.4717    0.0336 C   0  0  0  0  0  0  0  0  0  0  0  0
    6.8924   -0.5127   -0.4313 N   0  0  0  0  0  0  0  0  0  0  0  0
    7.7693   -1.5813   -0.7303 C   0  0  0  0  0  0  0  0  0  0  0  0
    7.3404   -2.8528   -0.6232 N   0  0  0  0  0  0  0  0  0  0  0  0
    8.2322   -3.8196   -0.8580 C   0  0  0  0  0  0  0  0  0  0  0  0
    9.5053   -3.6498   -1.2038 N   0  0  0  0  0  0  0  0  0  0  0  0
    9.9320   -2.3892   -1.2751 C   0  0  0  0  0  0  0  0  0  0  0  0
   11.2707   -2.2016   -1.5652 C   0  0  0  0  0  0  0  0  0  0  0  0
   11.8414   -0.9326   -1.5841 C   0  0  0  0  0  0  0  0  0  0  0  0
   13.1646   -0.6774   -1.7911 O   0  0  0  0  0  0  0  0  0  0  0  0
   13.9380   -1.7635   -2.3059 C   0  0  0  0  0  0  0  0  0  0  0  0
   15.2688   -1.1956   -2.6848 C   0  0  0  0  0  0  0  0  0  0  0  0
   16.3641   -1.2844   -1.8129 C   0  0  0  0  0  0  0  0  0  0  0  0
   17.5729   -0.6751   -2.1458 C   0  0  0  0  0  0  0  0  0  0  0  0
   17.6931    0.0200   -3.3491 C   0  0  0  0  0  0  0  0  0  0  0  0
   16.6105    0.1080   -4.2230 C   0  0  0  0  0  0  0  0  0  0  0  0
   15.4020   -0.4965   -3.8905 C   0  0  0  0  0  0  0  0  0  0  0  0
   11.0479    0.1821   -1.3492 C   0  0  0  0  0  0  0  0  0  0  0  0
    9.6883    0.0187   -1.0955 C   0  0  0  0  0  0  0  0  0  0  0  0
    9.1145   -1.2803   -1.0401 C   0  0  0  0  0  0  0  0  0  0  0  0
    4.8340   -1.5802    0.4683 C   0  0  0  0  0  0  0  0  0  0  0  0
    3.5212   -1.4298    0.9320 C   0  0  0  0  0  0  0  0  0  0  0  0
    2.7905   -2.5317    1.2829 O   0  0  0  0  0  0  0  0  0  0  0  0
    1.2100    1.0210    1.5954 H   0  0  0  0  0  0  0  0  0  0  0  0
    1.3591   -0.5053    2.4740 H   0  0  0  0  0  0  0  0  0  0  0  0
    0.8251   -0.4956    0.7693 H   0  0  0  0  0  0  0  0  0  0  0  0
    3.2517    1.9524    0.7542 H   0  0  0  0  0  0  0  0  0  0  0  0
    7.0720    0.2971   -1.0185 H   0  0  0  0  0  0  0  0  0  0  0  0
    7.9002   -4.8452   -0.7352 H   0  0  0  0  0  0  0  0  0  0  0  0
   11.8645   -3.0925   -1.7398 H   0  0  0  0  0  0  0  0  0  0  0  0
   13.4636   -2.1938   -3.1965 H   0  0  0  0  0  0  0  0  0  0  0  0
   14.0573   -2.5479   -1.5460 H   0  0  0  0  0  0  0  0  0  0  0  0
   16.2700   -1.8033   -0.8622 H   0  0  0  0  0  0  0  0  0  0  0  0
   18.4144   -0.7327   -1.4622 H   0  0  0  0  0  0  0  0  0  0  0  0
   18.6304    0.5058   -3.6016 H   0  0  0  0  0  0  0  0  0  0  0  0
   16.7000    0.6604   -5.1535 H   0  0  0  0  0  0  0  0  0  0  0  0
   14.5497   -0.4029   -4.5617 H   0  0  0  0  0  0  0  0  0  0  0  0
   11.4880    1.1775   -1.3523 H   0  0  0  0  0  0  0  0  0  0  0  0
    9.0930    0.9094   -0.9097 H   0  0  0  0  0  0  0  0  0  0  0  0
    5.2718   -2.5700    0.4305 H   0  0  0  0  0  0  0  0  0  0  0  0
    3.3055   -3.3261    1.0634 H   0  0  0  0  0  0  0  0  0  0  0  0
  1  2  1  0  0  0  0
  1 29  1  0  0  0  0
  1 30  1  0  0  0  0
  1 31  1  0  0  0  0
  2  3  1  0  0  0  0
  2 27  2  0  0  0  0
  3  4  2  0  0  0  0
  3 32  1  0  0  0  0
  4  5  1  0  0  0  0
  4  6  1  0  0  0  0
  6  7  1  0  0  0  0
  6 26  2  0  0  0  0
  7  8  1  0  0  0  0
  7 33  1  0  0  0  0
  8  9  1  0  0  0  0
  8 25  2  0  0  0  0
  9 10  2  0  0  0  0
 10 11  1  0  0  0  0
 10 34  1  0  0  0  0
 11 12  2  0  0  0  0
 12 13  1  0  0  0  0
 12 25  1  0  0  0  0
 13 14  2  0  0  0  0
 13 35  1  0  0  0  0
 14 15  1  0  0  0  0
 14 23  1  0  0  0  0
 15 16  1  0  0  0  0
 16 17  1  0  0  0  0
 16 36  1  0  0  0  0
 16 37  1  0  0  0  0
 17 18  1  0  0  0  0
 17 22  2  0  0  0  0
 18 19  2  0  0  0  0
 18 38  1  0  0  0  0
 19 20  1  0  0  0  0
 19 39  1  0  0  0  0
 20 21  2  0  0  0  0
 20 40  1  0  0  0  0
 21 22  1  0  0  0  0
 21 41  1  0  0  0  0
 22 42  1  0  0  0  0
 23 24  2  0  0  0  0
 23 43  1  0  0  0  0
 24 25  1  0  0  0  0
 24 44  1  0  0  0  0
 26 27  1  0  0  0  0
 26 45  1  0  0  0  0
 27 28  1  0  0  0  0
 28 46  1  0  0  0  0
M  END
$$$$
