CHEMBL3943080
 OpenBabel04072215373D

 63 67  0  0  0  0  0  0  0  0999 V2000
    0.5069   -3.5770   -1.9701 C   0  0  0  0  0  0  0  0  0  0  0  0
    1.8297   -4.0452   -1.6925 O   0  0  0  0  0  0  0  0  0  0  0  0
    2.7816   -3.0956   -1.4068 C   0  0  0  0  0  0  0  0  0  0  0  0
    2.5499   -1.7213   -1.4625 C   0  0  0  0  0  0  0  0  0  0  0  0
    3.5623   -0.8412   -1.1007 C   0  0  0  0  0  0  0  0  0  0  0  0
    3.4600    0.5244   -1.0793 O   0  0  0  0  0  0  0  0  0  0  0  0
    2.2528    1.0937   -1.5725 C   0  0  0  0  0  0  0  0  0  0  0  0
    4.7997   -1.3384   -0.6726 C   0  0  0  0  0  0  0  0  0  0  0  0
    5.0779   -2.7128   -0.5893 C   0  0  0  0  0  0  0  0  0  0  0  0
    6.2426   -3.2217    0.0443 N   0  0  0  0  0  0  0  0  0  0  0  0
    6.8037   -2.3847    1.1795 C   0  0  0  0  0  0  0  0  0  0  0  0
    5.8692   -2.1151    2.3810 C   0  0  0  0  0  0  0  0  0  0  0  0
    5.5490   -3.2709    3.2144 N   0  0  0  0  0  0  0  0  0  0  0  0
    4.4837   -4.1808    2.8889 C   0  0  0  0  0  0  0  0  0  0  0  0
    4.3713   -5.0489    4.1290 C   0  0  0  0  0  0  0  0  0  0  0  0
    5.7907   -5.0848    4.6830 C   0  0  0  0  0  0  0  0  0  0  0  0
    6.3683   -3.7661    4.2196 C   0  0  0  0  0  0  0  0  0  0  0  0
    7.4055   -3.2678    4.6251 O   0  0  0  0  0  0  0  0  0  0  0  0
    7.3392   -3.9814   -0.5136 C   0  0  0  0  0  0  0  0  0  0  0  0
    7.9339   -4.8772    0.3726 C   0  0  0  0  0  0  0  0  0  0  0  0
    9.2689   -5.2058    0.2328 C   0  0  0  0  0  0  0  0  0  0  0  0
    9.9976   -4.8138   -0.8591 C   0  0  0  0  0  0  0  0  0  0  0  0
   11.3127   -5.0328   -0.7547 N   0  0  0  0  0  0  0  0  0  0  0  0
   12.0417   -4.8278   -1.8538 C   0  0  0  0  0  0  0  0  0  0  0  0
   11.4577   -4.4840   -3.0556 C   0  0  0  0  0  0  0  0  0  0  0  0
   12.2662   -4.7189   -4.2455 C   0  0  0  0  0  0  0  0  0  0  0  0
   12.2743   -5.8443   -5.1132 C   0  0  0  0  0  0  0  0  0  0  0  0
   13.3090   -5.8424   -5.9650 N   0  0  0  0  0  0  0  0  0  0  0  0
   13.9705   -4.7176   -5.6459 N   0  0  0  0  0  0  0  0  0  0  0  0
   14.9892   -4.1943   -6.5263 C   0  0  0  0  0  0  0  0  0  0  0  0
   13.4821   -4.1121   -4.5177 C   0  0  0  0  0  0  0  0  0  0  0  0
   10.1157   -4.1284   -3.1281 N   0  0  0  0  0  0  0  0  0  0  0  0
    9.3686   -4.2146   -1.9749 C   0  0  0  0  0  0  0  0  0  0  0  0
    8.0164   -3.7458   -1.7404 C   0  0  0  0  0  0  0  0  0  0  0  0
    4.0468   -3.5811   -0.9991 C   0  0  0  0  0  0  0  0  0  0  0  0
   -0.1465   -4.4444   -2.1066 H   0  0  0  0  0  0  0  0  0  0  0  0
    0.4774   -2.9962   -2.8993 H   0  0  0  0  0  0  0  0  0  0  0  0
    0.0997   -2.9954   -1.1338 H   0  0  0  0  0  0  0  0  0  0  0  0
    1.5854   -1.3384   -1.7706 H   0  0  0  0  0  0  0  0  0  0  0  0
    2.3642    2.1817   -1.5441 H   0  0  0  0  0  0  0  0  0  0  0  0
    1.4034    0.8315   -0.9330 H   0  0  0  0  0  0  0  0  0  0  0  0
    2.0702    0.8003   -2.6122 H   0  0  0  0  0  0  0  0  0  0  0  0
    5.5451   -0.6084   -0.3679 H   0  0  0  0  0  0  0  0  0  0  0  0
    7.1693   -1.4346    0.7729 H   0  0  0  0  0  0  0  0  0  0  0  0
    7.6946   -2.8509    1.6184 H   0  0  0  0  0  0  0  0  0  0  0  0
    4.9350   -1.6251    2.0975 H   0  0  0  0  0  0  0  0  0  0  0  0
    6.4079   -1.4143    3.0335 H   0  0  0  0  0  0  0  0  0  0  0  0
    4.7772   -4.7668    2.0148 H   0  0  0  0  0  0  0  0  0  0  0  0
    3.5601   -3.6309    2.6883 H   0  0  0  0  0  0  0  0  0  0  0  0
    3.9739   -6.0446    3.9123 H   0  0  0  0  0  0  0  0  0  0  0  0
    3.7059   -4.5757    4.8624 H   0  0  0  0  0  0  0  0  0  0  0  0
    6.3695   -5.8987    4.2346 H   0  0  0  0  0  0  0  0  0  0  0  0
    5.7993   -5.1654    5.7731 H   0  0  0  0  0  0  0  0  0  0  0  0
    7.4136   -5.1726    1.2807 H   0  0  0  0  0  0  0  0  0  0  0  0
    9.7668   -5.7463    1.0359 H   0  0  0  0  0  0  0  0  0  0  0  0
   13.1038   -5.0209   -1.7562 H   0  0  0  0  0  0  0  0  0  0  0  0
   11.5942   -6.6869   -5.1359 H   0  0  0  0  0  0  0  0  0  0  0  0
   15.0788   -4.8307   -7.4111 H   0  0  0  0  0  0  0  0  0  0  0  0
   15.9422   -4.1453   -5.9949 H   0  0  0  0  0  0  0  0  0  0  0  0
   14.6694   -3.1938   -6.8306 H   0  0  0  0  0  0  0  0  0  0  0  0
   14.0196   -3.3015   -4.0448 H   0  0  0  0  0  0  0  0  0  0  0  0
    7.5509   -3.1370   -2.5123 H   0  0  0  0  0  0  0  0  0  0  0  0
    4.1901   -4.6567   -0.9263 H   0  0  0  0  0  0  0  0  0  0  0  0
  1  2  1  0  0  0  0
  1 36  1  0  0  0  0
  1 37  1  0  0  0  0
  1 38  1  0  0  0  0
  2  3  1  0  0  0  0
  3  4  1  0  0  0  0
  3 35  2  0  0  0  0
  4  5  2  0  0  0  0
  4 39  1  0  0  0  0
  5  6  1  0  0  0  0
  5  8  1  0  0  0  0
  6  7  1  0  0  0  0
  7 40  1  0  0  0  0
  7 41  1  0  0  0  0
  7 42  1  0  0  0  0
  8  9  2  0  0  0  0
  8 43  1  0  0  0  0
  9 10  1  0  0  0  0
  9 35  1  0  0  0  0
 10 11  1  0  0  0  0
 10 19  1  0  0  0  0
 11 12  1  0  0  0  0
 11 44  1  0  0  0  0
 11 45  1  0  0  0  0
 12 13  1  0  0  0  0
 12 46  1  0  0  0  0
 12 47  1  0  0  0  0
 13 14  1  0  0  0  0
 13 17  1  0  0  0  0
 14 15  1  0  0  0  0
 14 48  1  0  0  0  0
 14 49  1  0  0  0  0
 15 16  1  0  0  0  0
 15 50  1  0  0  0  0
 15 51  1  0  0  0  0
 16 17  1  0  0  0  0
 16 52  1  0  0  0  0
 16 53  1  0  0  0  0
 17 18  2  0  0  0  0
 19 20  1  0  0  0  0
 19 34  2  0  0  0  0
 20 21  2  0  0  0  0
 20 54  1  0  0  0  0
 21 22  1  0  0  0  0
 21 55  1  0  0  0  0
 22 23  1  0  0  0  0
 22 33  2  0  0  0  0
 23 24  2  0  0  0  0
 24 25  1  0  0  0  0
 24 56  1  0  0  0  0
 25 26  1  0  0  0  0
 25 32  2  0  0  0  0
 26 27  1  0  0  0  0
 26 31  2  0  0  0  0
 27 28  2  0  0  0  0
 27 57  1  0  0  0  0
 28 29  1  0  0  0  0
 29 30  1  0  0  0  0
 29 31  1  0  0  0  0
 30 58  1  0  0  0  0
 30 59  1  0  0  0  0
 30 60  1  0  0  0  0
 31 61  1  0  0  0  0
 32 33  1  0  0  0  0
 33 34  1  0  0  0  0
 34 62  1  0  0  0  0
 35 63  1  0  0  0  0
M  END
$$$$
