CHEMBL3920637
 OpenBabel04072215373D

 64 68  0  0  0  0  0  0  0  0999 V2000
    0.6871   -1.9916    3.6902 C   0  0  0  0  0  0  0  0  0  0  0  0
    2.0711   -1.8140    4.0181 O   0  0  0  0  0  0  0  0  0  0  0  0
    2.9290   -1.5477    2.9799 C   0  0  0  0  0  0  0  0  0  0  0  0
    2.5655   -1.5346    1.6354 C   0  0  0  0  0  0  0  0  0  0  0  0
    3.5010   -1.1870    0.6652 C   0  0  0  0  0  0  0  0  0  0  0  0
    3.2587   -1.1039   -0.6817 O   0  0  0  0  0  0  0  0  0  0  0  0
    1.9632   -1.4873   -1.1320 C   0  0  0  0  0  0  0  0  0  0  0  0
    4.8122   -0.8490    1.0474 C   0  0  0  0  0  0  0  0  0  0  0  0
    5.2251   -0.8500    2.3893 C   0  0  0  0  0  0  0  0  0  0  0  0
    6.4752   -0.3254    2.8118 N   0  0  0  0  0  0  0  0  0  0  0  0
    7.0115    0.8591    2.0221 C   0  0  0  0  0  0  0  0  0  0  0  0
    6.1098    2.0887    1.7516 C   0  0  0  0  0  0  0  0  0  0  0  0
    5.8313    3.0677    2.9078 C   0  0  0  0  0  0  0  0  0  0  0  0
    5.0521    4.2874    2.4218 C   0  0  0  0  0  0  0  0  0  0  0  0
    3.6616    4.2215    2.2872 C   0  0  0  0  0  0  0  0  0  0  0  0
    2.9711    5.3304    1.8109 C   0  0  0  0  0  0  0  0  0  0  0  0
    3.5594    6.4910    1.4532 N   0  0  0  0  0  0  0  0  0  0  0  0
    4.9014    6.5438    1.5848 C   0  0  0  0  0  0  0  0  0  0  0  0
    5.6786    5.4879    2.0573 C   0  0  0  0  0  0  0  0  0  0  0  0
    7.6143   -1.0313    3.3821 C   0  0  0  0  0  0  0  0  0  0  0  0
    8.3772   -0.2686    4.2600 C   0  0  0  0  0  0  0  0  0  0  0  0
    9.7137   -0.5526    4.4554 C   0  0  0  0  0  0  0  0  0  0  0  0
   10.3060   -1.6745    3.9466 C   0  0  0  0  0  0  0  0  0  0  0  0
   11.6315   -1.7000    4.1024 N   0  0  0  0  0  0  0  0  0  0  0  0
   12.2502   -2.8594    3.8306 C   0  0  0  0  0  0  0  0  0  0  0  0
   11.5520   -3.9855    3.4717 C   0  0  0  0  0  0  0  0  0  0  0  0
   12.2868   -5.2543    3.5543 C   0  0  0  0  0  0  0  0  0  0  0  0
   12.3377   -6.2121    4.5952 C   0  0  0  0  0  0  0  0  0  0  0  0
   13.3106   -7.1188    4.4292 N   0  0  0  0  0  0  0  0  0  0  0  0
   13.9041   -6.7311    3.2882 N   0  0  0  0  0  0  0  0  0  0  0  0
   14.7827   -7.6291    2.5742 C   0  0  0  0  0  0  0  0  0  0  0  0
   13.4592   -5.5155    2.8450 C   0  0  0  0  0  0  0  0  0  0  0  0
   10.1959   -3.9374    3.1884 N   0  0  0  0  0  0  0  0  0  0  0  0
    9.5234   -2.7109    3.3777 C   0  0  0  0  0  0  0  0  0  0  0  0
    8.1594   -2.3057    3.0245 C   0  0  0  0  0  0  0  0  0  0  0  0
    4.2612   -1.2351    3.3452 C   0  0  0  0  0  0  0  0  0  0  0  0
    0.1198   -2.0656    4.6231 H   0  0  0  0  0  0  0  0  0  0  0  0
    0.5337   -2.9223    3.1329 H   0  0  0  0  0  0  0  0  0  0  0  0
    0.2845   -1.1352    3.1353 H   0  0  0  0  0  0  0  0  0  0  0  0
    1.5505   -1.7781    1.3438 H   0  0  0  0  0  0  0  0  0  0  0  0
    1.9515   -1.4161   -2.2240 H   0  0  0  0  0  0  0  0  0  0  0  0
    1.1937   -0.8092   -0.7471 H   0  0  0  0  0  0  0  0  0  0  0  0
    1.7425   -2.5264   -0.8652 H   0  0  0  0  0  0  0  0  0  0  0  0
    5.4999   -0.5500    0.2627 H   0  0  0  0  0  0  0  0  0  0  0  0
    7.3609    0.4756    1.0538 H   0  0  0  0  0  0  0  0  0  0  0  0
    7.9084    1.2771    2.4940 H   0  0  0  0  0  0  0  0  0  0  0  0
    5.1695    1.8015    1.2756 H   0  0  0  0  0  0  0  0  0  0  0  0
    6.6529    2.6753    0.9947 H   0  0  0  0  0  0  0  0  0  0  0  0
    6.7677    3.4093    3.3682 H   0  0  0  0  0  0  0  0  0  0  0  0
    5.2593    2.5740    3.7025 H   0  0  0  0  0  0  0  0  0  0  0  0
    3.1174    3.3191    2.5433 H   0  0  0  0  0  0  0  0  0  0  0  0
    1.8904    5.3069    1.7007 H   0  0  0  0  0  0  0  0  0  0  0  0
    5.3506    7.4901    1.2890 H   0  0  0  0  0  0  0  0  0  0  0  0
    6.7528    5.6167    2.1320 H   0  0  0  0  0  0  0  0  0  0  0  0
    7.9718    0.6478    4.6779 H   0  0  0  0  0  0  0  0  0  0  0  0
   10.3307    0.1661    4.9987 H   0  0  0  0  0  0  0  0  0  0  0  0
   13.3216   -2.8504    3.9741 H   0  0  0  0  0  0  0  0  0  0  0  0
   11.7255   -6.2797    5.4849 H   0  0  0  0  0  0  0  0  0  0  0  0
   14.8529   -8.5839    3.1031 H   0  0  0  0  0  0  0  0  0  0  0  0
   15.7712   -7.1753    2.4740 H   0  0  0  0  0  0  0  0  0  0  0  0
   14.3388   -7.7948    1.5881 H   0  0  0  0  0  0  0  0  0  0  0  0
   13.9719   -4.9917    2.0512 H   0  0  0  0  0  0  0  0  0  0  0  0
    7.5630   -2.9999    2.4333 H   0  0  0  0  0  0  0  0  0  0  0  0
    4.5180   -1.2187    4.4002 H   0  0  0  0  0  0  0  0  0  0  0  0
  1  2  1  0  0  0  0
  1 37  1  0  0  0  0
  1 38  1  0  0  0  0
  1 39  1  0  0  0  0
  2  3  1  0  0  0  0
  3  4  1  0  0  0  0
  3 36  2  0  0  0  0
  4  5  2  0  0  0  0
  4 40  1  0  0  0  0
  5  6  1  0  0  0  0
  5  8  1  0  0  0  0
  6  7  1  0  0  0  0
  7 41  1  0  0  0  0
  7 42  1  0  0  0  0
  7 43  1  0  0  0  0
  8  9  2  0  0  0  0
  8 44  1  0  0  0  0
  9 10  1  0  0  0  0
  9 36  1  0  0  0  0
 10 11  1  0  0  0  0
 10 20  1  0  0  0  0
 11 12  1  0  0  0  0
 11 45  1  0  0  0  0
 11 46  1  0  0  0  0
 12 13  1  0  0  0  0
 12 47  1  0  0  0  0
 12 48  1  0  0  0  0
 13 14  1  0  0  0  0
 13 49  1  0  0  0  0
 13 50  1  0  0  0  0
 14 15  1  0  0  0  0
 14 19  2  0  0  0  0
 15 16  2  0  0  0  0
 15 51  1  0  0  0  0
 16 17  1  0  0  0  0
 16 52  1  0  0  0  0
 17 18  2  0  0  0  0
 18 19  1  0  0  0  0
 18 53  1  0  0  0  0
 19 54  1  0  0  0  0
 20 21  1  0  0  0  0
 20 35  2  0  0  0  0
 21 22  2  0  0  0  0
 21 55  1  0  0  0  0
 22 23  1  0  0  0  0
 22 56  1  0  0  0  0
 23 24  1  0  0  0  0
 23 34  2  0  0  0  0
 24 25  2  0  0  0  0
 25 26  1  0  0  0  0
 25 57  1  0  0  0  0
 26 27  1  0  0  0  0
 26 33  2  0  0  0  0
 27 28  1  0  0  0  0
 27 32  2  0  0  0  0
 28 29  2  0  0  0  0
 28 58  1  0  0  0  0
 29 30  1  0  0  0  0
 30 31  1  0  0  0  0
 30 32  1  0  0  0  0
 31 59  1  0  0  0  0
 31 60  1  0  0  0  0
 31 61  1  0  0  0  0
 32 62  1  0  0  0  0
 33 34  1  0  0  0  0
 34 35  1  0  0  0  0
 35 63  1  0  0  0  0
 36 64  1  0  0  0  0
M  END
$$$$
