CHEMBL151959
 OpenBabel04072215363D

 64 69  0  0  1  0  0  0  0  0999 V2000
    3.0613    5.2851   -4.0211 C   0  0  0  0  0  0  0  0  0  0  0  0
    2.4503    3.8903   -4.0384 C   0  0  0  0  0  0  0  0  0  0  0  0
    2.7479    3.0885   -2.7661 C   0  0  3  0  0  0  0  0  0  0  0  0
    2.0685    1.7232   -2.8458 C   0  0  0  0  0  0  0  0  0  0  0  0
    4.1598    2.9275   -2.6733 O   0  0  0  0  0  0  0  0  0  0  0  0
    4.5868    2.3193   -1.4574 C   0  0  0  0  0  0  0  0  0  0  0  0
    6.0785    2.3104   -1.4968 C   0  0  0  0  0  0  0  0  0  0  0  0
    6.7586    1.0981   -1.7025 C   0  0  0  0  0  0  0  0  0  0  0  0
    8.1250    1.0822   -1.9358 C   0  0  0  0  0  0  0  0  0  0  0  0
    8.8153    2.2995   -1.9730 C   0  0  0  0  0  0  0  0  0  0  0  0
    8.1443    3.5212   -1.7064 C   0  0  0  0  0  0  0  0  0  0  0  0
    6.7671    3.5288   -1.4376 C   0  0  0  0  0  0  0  0  0  0  0  0
    9.1722    4.4231   -1.7695 C   0  0  0  0  0  0  0  0  0  0  0  0
    9.2794    5.6161   -0.9883 C   0  0  0  0  0  0  0  0  0  0  0  0
   10.6447    5.9754   -0.5915 C   0  0  0  0  0  0  0  0  0  0  0  0
   11.7064    5.1677   -1.0223 C   0  0  0  0  0  0  0  0  0  0  0  0
   11.3693    4.7708   -2.3159 C   0  0  0  0  0  0  0  0  0  0  0  0
   10.2926    3.9587   -2.3653 C   0  0  0  0  0  0  0  0  0  0  0  0
   10.1743    2.5813   -2.1580 N   0  0  0  0  0  0  0  0  0  0  0  0
   11.2655    1.7622   -1.6150 C   0  0  0  0  0  0  0  0  0  0  0  0
   11.2547    0.2538   -1.8056 C   0  0  0  0  0  0  0  0  0  0  0  0
   12.4572   -0.4386   -1.1683 C   0  0  0  0  0  0  0  0  0  0  0  0
   12.4033   -1.8324   -1.4545 O   0  0  0  0  0  0  0  0  0  0  0  0
   12.4355    5.1375   -3.2560 C   0  0  0  0  0  0  0  0  0  0  0  0
   13.5602    4.6556   -2.3840 C   0  0  0  0  0  0  0  0  0  0  0  0
   14.3882    3.6572   -2.9000 C   0  0  0  0  0  0  0  0  0  0  0  0
   14.8176    2.6690   -2.0357 C   0  0  0  0  0  0  0  0  0  0  0  0
   14.4819    2.7522   -0.6743 C   0  0  0  0  0  0  0  0  0  0  0  0
   13.6725    3.8086   -0.1522 C   0  0  0  0  0  0  0  0  0  0  0  0
   13.1407    4.7956   -1.0071 C   0  0  0  0  0  0  0  0  0  0  0  0
   10.5754    7.3561   -0.1781 C   0  0  0  0  0  0  0  0  0  0  0  0
   11.4306    8.1915    0.0970 O   0  0  0  0  0  0  0  0  0  0  0  0
    9.2145    7.7100   -0.3197 N   0  0  0  0  0  0  0  0  0  0  0  0
    8.3072    6.6715   -0.7700 C   0  0  0  0  0  0  0  0  0  0  0  0
    2.8067    5.8158   -4.9444 H   0  0  0  0  0  0  0  0  0  0  0  0
    4.1526    5.2449   -3.9496 H   0  0  0  0  0  0  0  0  0  0  0  0
    2.6806    5.8710   -3.1790 H   0  0  0  0  0  0  0  0  0  0  0  0
    2.8428    3.3571   -4.9121 H   0  0  0  0  0  0  0  0  0  0  0  0
    1.3673    3.9819   -4.1711 H   0  0  0  0  0  0  0  0  0  0  0  0
    2.3888    3.6471   -1.8931 H   0  0  0  0  0  0  0  0  0  0  0  0
    2.5268    1.1018   -3.6129 H   0  0  0  0  0  0  0  0  0  0  0  0
    1.0097    1.8385   -3.0922 H   0  0  0  0  0  0  0  0  0  0  0  0
    2.1676    1.1796   -1.8955 H   0  0  0  0  0  0  0  0  0  0  0  0
    4.2261    1.2911   -1.3926 H   0  0  0  0  0  0  0  0  0  0  0  0
    4.2313    2.8800   -0.5892 H   0  0  0  0  0  0  0  0  0  0  0  0
    6.2221    0.1644   -1.7118 H   0  0  0  0  0  0  0  0  0  0  0  0
    8.6038    0.1390   -2.1353 H   0  0  0  0  0  0  0  0  0  0  0  0
    6.2386    4.4591   -1.3069 H   0  0  0  0  0  0  0  0  0  0  0  0
   11.3004    1.9949   -0.5332 H   0  0  0  0  0  0  0  0  0  0  0  0
   12.1740    2.1362   -2.0781 H   0  0  0  0  0  0  0  0  0  0  0  0
   11.2075    0.0119   -2.8739 H   0  0  0  0  0  0  0  0  0  0  0  0
   10.3785   -0.1979   -1.3381 H   0  0  0  0  0  0  0  0  0  0  0  0
   12.4550   -0.3219   -0.0788 H   0  0  0  0  0  0  0  0  0  0  0  0
   13.4042   -0.0604   -1.5589 H   0  0  0  0  0  0  0  0  0  0  0  0
   11.5857   -2.1783   -1.0571 H   0  0  0  0  0  0  0  0  0  0  0  0
   12.5054    6.2371   -3.3262 H   0  0  0  0  0  0  0  0  0  0  0  0
   12.3363    4.7030   -4.2445 H   0  0  0  0  0  0  0  0  0  0  0  0
   14.4561    3.5133   -3.9779 H   0  0  0  0  0  0  0  0  0  0  0  0
   15.2846    1.7738   -2.4479 H   0  0  0  0  0  0  0  0  0  0  0  0
   14.7487    1.9048   -0.0412 H   0  0  0  0  0  0  0  0  0  0  0  0
   13.2890    3.6786    0.8593 H   0  0  0  0  0  0  0  0  0  0  0  0
    8.9934    8.6890   -0.4403 H   0  0  0  0  0  0  0  0  0  0  0  0
    7.8305    6.9609   -1.7128 H   0  0  0  0  0  0  0  0  0  0  0  0
    7.5675    6.4597    0.0032 H   0  0  0  0  0  0  0  0  0  0  0  0
  1  2  1  0  0  0  0
  1 35  1  0  0  0  0
  1 36  1  0  0  0  0
  1 37  1  0  0  0  0
  2  3  1  0  0  0  0
  2 38  1  0  0  0  0
  2 39  1  0  0  0  0
  3  4  1  0  0  0  0
  3  5  1  0  0  0  0
  3 40  1  0  0  0  0
  4 41  1  0  0  0  0
  4 42  1  0  0  0  0
  4 43  1  0  0  0  0
  5  6  1  0  0  0  0
  6  7  1  0  0  0  0
  6 44  1  0  0  0  0
  6 45  1  0  0  0  0
  7  8  1  0  0  0  0
  7 12  2  0  0  0  0
  8  9  2  0  0  0  0
  8 46  1  0  0  0  0
  9 10  1  0  0  0  0
  9 47  1  0  0  0  0
 10 11  2  0  0  0  0
 10 19  1  0  0  0  0
 11 12  1  0  0  0  0
 11 13  1  0  0  0  0
 12 48  1  0  0  0  0
 13 14  1  0  0  0  0
 13 18  2  0  0  0  0
 14 15  2  0  0  0  0
 14 34  1  0  0  0  0
 15 16  1  0  0  0  0
 15 31  1  0  0  0  0
 16 17  2  0  0  0  0
 16 30  1  0  0  0  0
 17 18  1  0  0  0  0
 17 24  1  0  0  0  0
 18 19  1  0  0  0  0
 19 20  1  0  0  0  0
 20 21  1  0  0  0  0
 20 49  1  0  0  0  0
 20 50  1  0  0  0  0
 21 22  1  0  0  0  0
 21 51  1  0  0  0  0
 21 52  1  0  0  0  0
 22 23  1  0  0  0  0
 22 53  1  0  0  0  0
 22 54  1  0  0  0  0
 23 55  1  0  0  0  0
 24 25  1  0  0  0  0
 24 56  1  0  0  0  0
 24 57  1  0  0  0  0
 25 26  1  0  0  0  0
 25 30  2  0  0  0  0
 26 27  2  0  0  0  0
 26 58  1  0  0  0  0
 27 28  1  0  0  0  0
 27 59  1  0  0  0  0
 28 29  2  0  0  0  0
 28 60  1  0  0  0  0
 29 30  1  0  0  0  0
 29 61  1  0  0  0  0
 31 32  2  0  0  0  0
 31 33  1  0  0  0  0
 33 34  1  0  0  0  0
 33 62  1  0  0  0  0
 34 63  1  0  0  0  0
 34 64  1  0  0  0  0
M  END
$$$$
