CHEMBL387591
 OpenBabel04072215373D

 62 67  0  0  0  0  0  0  0  0999 V2000
   -3.8039    4.0782    0.1125 C   0  0  0  0  0  0  0  0  0  0  0  0
   -3.2160    2.8002   -0.2765 N   0  0  0  0  0  0  0  0  0  0  0  0
   -1.9310    2.5679    0.4046 C   0  0  0  0  0  0  0  0  0  0  0  0
   -1.3206    1.1932    0.0305 C   0  0  0  0  0  0  0  0  0  0  0  0
   -2.2024    0.0309    0.2910 N   0  0  0  0  0  0  0  0  0  0  0  0
   -2.2788   -0.2480    1.7373 C   0  0  0  0  0  0  0  0  0  0  0  0
   -3.0429   -1.5111    2.0846 C   0  0  0  0  0  0  0  0  0  0  0  0
   -4.4199   -1.3897    2.3666 C   0  0  0  0  0  0  0  0  0  0  0  0
   -5.2486   -2.4935    2.6006 C   0  0  0  0  0  0  0  0  0  0  0  0
   -6.6229   -2.3876    2.8815 N   0  0  0  0  0  0  0  0  0  0  0  0
   -7.3894   -1.2837    2.8328 C   0  0  0  0  0  0  0  0  0  0  0  0
   -7.0803   -0.0217    2.6141 N   0  0  0  0  0  0  0  0  0  0  0  0
   -8.2868    0.6095    2.5246 C   0  0  0  0  0  0  0  0  0  0  0  0
   -8.5937    1.9398    2.2229 C   0  0  0  0  0  0  0  0  0  0  0  0
   -9.9459    2.3247    2.2319 C   0  0  0  0  0  0  0  0  0  0  0  0
  -10.3315    3.6337    1.9992 O   0  0  0  0  0  0  0  0  0  0  0  0
   -9.6426    4.6455    2.6549 C   0  0  0  0  0  0  0  0  0  0  0  0
   -9.0219    4.4328    3.8868 C   0  0  0  0  0  0  0  0  0  0  0  0
   -8.2911    5.4564    4.4377 C   0  0  0  0  0  0  0  0  0  0  0  0
   -8.2283    6.6938    3.9056 N   0  0  0  0  0  0  0  0  0  0  0  0
   -8.9088    6.9346    2.7752 C   0  0  0  0  0  0  0  0  0  0  0  0
   -8.9062    8.2354    2.3000 C   0  0  0  0  0  0  0  0  0  0  0  0
   -9.6003    8.5940    1.1457 C   0  0  0  0  0  0  0  0  0  0  0  0
  -10.2750    7.6221    0.4208 C   0  0  0  0  0  0  0  0  0  0  0  0
  -10.2820    6.3006    0.8753 C   0  0  0  0  0  0  0  0  0  0  0  0
   -9.6232    5.9374    2.0756 C   0  0  0  0  0  0  0  0  0  0  0  0
  -10.9624    1.3866    2.4590 C   0  0  0  0  0  0  0  0  0  0  0  0
  -10.6554    0.0493    2.7474 C   0  0  0  0  0  0  0  0  0  0  0  0
  -11.8876   -1.1002    3.0532 Cl  0  0  0  0  0  0  0  0  0  0  0  0
   -9.3080   -0.2896    2.7684 C   0  0  0  0  0  0  0  0  0  0  0  0
   -8.7331   -1.5120    2.9821 O   0  0  0  0  0  0  0  0  0  0  0  0
   -4.6467   -3.7568    2.6111 C   0  0  0  0  0  0  0  0  0  0  0  0
   -3.2739   -3.9037    2.3819 C   0  0  0  0  0  0  0  0  0  0  0  0
   -2.4739   -2.7878    2.1178 C   0  0  0  0  0  0  0  0  0  0  0  0
   -0.7841   -3.0532    1.8864 Cl  0  0  0  0  0  0  0  0  0  0  0  0
   -3.5083    0.3094   -0.3507 C   0  0  0  0  0  0  0  0  0  0  0  0
   -4.1403    1.6827   -0.0119 C   0  0  0  0  0  0  0  0  0  0  0  0
   -3.1139    4.9017   -0.1037 H   0  0  0  0  0  0  0  0  0  0  0  0
   -4.0582    4.1132    1.1777 H   0  0  0  0  0  0  0  0  0  0  0  0
   -4.7139    4.2724   -0.4663 H   0  0  0  0  0  0  0  0  0  0  0  0
   -2.0519    2.6362    1.4934 H   0  0  0  0  0  0  0  0  0  0  0  0
   -1.2182    3.3481    0.1117 H   0  0  0  0  0  0  0  0  0  0  0  0
   -0.3594    1.0642    0.5425 H   0  0  0  0  0  0  0  0  0  0  0  0
   -1.0808    1.2012   -1.0417 H   0  0  0  0  0  0  0  0  0  0  0  0
   -2.7175    0.5933    2.2881 H   0  0  0  0  0  0  0  0  0  0  0  0
   -1.2637   -0.3426    2.1432 H   0  0  0  0  0  0  0  0  0  0  0  0
   -4.8371   -0.3873    2.3720 H   0  0  0  0  0  0  0  0  0  0  0  0
   -7.1245   -3.2661    2.8691 H   0  0  0  0  0  0  0  0  0  0  0  0
   -7.7955    2.6441    2.0177 H   0  0  0  0  0  0  0  0  0  0  0  0
   -9.0760    3.4852    4.4105 H   0  0  0  0  0  0  0  0  0  0  0  0
   -7.7207    5.3103    5.3489 H   0  0  0  0  0  0  0  0  0  0  0  0
   -8.3721    8.9984    2.8617 H   0  0  0  0  0  0  0  0  0  0  0  0
   -9.6102    9.6329    0.8238 H   0  0  0  0  0  0  0  0  0  0  0  0
  -10.8052    7.8950   -0.4879 H   0  0  0  0  0  0  0  0  0  0  0  0
  -10.8224    5.5530    0.2972 H   0  0  0  0  0  0  0  0  0  0  0  0
  -12.0028    1.7030    2.4215 H   0  0  0  0  0  0  0  0  0  0  0  0
   -5.2391   -4.6482    2.8034 H   0  0  0  0  0  0  0  0  0  0  0  0
   -2.8342   -4.8980    2.4119 H   0  0  0  0  0  0  0  0  0  0  0  0
   -4.2312   -0.4881   -0.1530 H   0  0  0  0  0  0  0  0  0  0  0  0
   -3.3532    0.2685   -1.4379 H   0  0  0  0  0  0  0  0  0  0  0  0
   -4.4665    1.6906    1.0355 H   0  0  0  0  0  0  0  0  0  0  0  0
   -5.0380    1.8055   -0.6307 H   0  0  0  0  0  0  0  0  0  0  0  0
  1  2  1  0  0  0  0
  1 38  1  0  0  0  0
  1 39  1  0  0  0  0
  1 40  1  0  0  0  0
  2  3  1  0  0  0  0
  2 37  1  0  0  0  0
  3  4  1  0  0  0  0
  3 41  1  0  0  0  0
  3 42  1  0  0  0  0
  4  5  1  0  0  0  0
  4 43  1  0  0  0  0
  4 44  1  0  0  0  0
  5  6  1  0  0  0  0
  5 36  1  0  0  0  0
  6  7  1  0  0  0  0
  6 45  1  0  0  0  0
  6 46  1  0  0  0  0
  7  8  1  0  0  0  0
  7 34  2  0  0  0  0
  8  9  2  0  0  0  0
  8 47  1  0  0  0  0
  9 10  1  0  0  0  0
  9 32  1  0  0  0  0
 10 11  1  0  0  0  0
 10 48  1  0  0  0  0
 11 12  2  0  0  0  0
 11 31  1  0  0  0  0
 12 13  1  0  0  0  0
 13 14  1  0  0  0  0
 13 30  2  0  0  0  0
 14 15  2  0  0  0  0
 14 49  1  0  0  0  0
 15 16  1  0  0  0  0
 15 27  1  0  0  0  0
 16 17  1  0  0  0  0
 17 18  1  0  0  0  0
 17 26  2  0  0  0  0
 18 19  2  0  0  0  0
 18 50  1  0  0  0  0
 19 20  1  0  0  0  0
 19 51  1  0  0  0  0
 20 21  2  0  0  0  0
 21 22  1  0  0  0  0
 21 26  1  0  0  0  0
 22 23  2  0  0  0  0
 22 52  1  0  0  0  0
 23 24  1  0  0  0  0
 23 53  1  0  0  0  0
 24 25  2  0  0  0  0
 24 54  1  0  0  0  0
 25 26  1  0  0  0  0
 25 55  1  0  0  0  0
 27 28  2  0  0  0  0
 27 56  1  0  0  0  0
 28 29  1  0  0  0  0
 28 30  1  0  0  0  0
 30 31  1  0  0  0  0
 32 33  2  0  0  0  0
 32 57  1  0  0  0  0
 33 34  1  0  0  0  0
 33 58  1  0  0  0  0
 34 35  1  0  0  0  0
 36 37  1  0  0  0  0
 36 59  1  0  0  0  0
 36 60  1  0  0  0  0
 37 61  1  0  0  0  0
 37 62  1  0  0  0  0
M  END
$$$$
