CHEMBL3907879
 OpenBabel04072215373D

 63 66  0  0  1  0  0  0  0  0999 V2000
    3.8451   -1.9780   -4.7542 C   0  0  0  0  0  0  0  0  0  0  0  0
    3.7785   -2.8456   -3.6296 O   0  0  0  0  0  0  0  0  0  0  0  0
    3.6253   -2.2640   -2.4034 C   0  0  0  0  0  0  0  0  0  0  0  0
    4.3960   -2.8726   -1.3954 C   0  0  0  0  0  0  0  0  0  0  0  0
    4.3302   -2.4413   -0.0424 C   0  0  0  0  0  0  0  0  0  0  0  0
    5.0264   -2.9628    1.0612 C   0  0  0  0  0  0  0  0  0  0  0  0
    5.9493   -4.0224    0.8685 N   0  0  0  0  0  0  0  0  0  0  0  0
    6.4680   -4.7953    1.9315 C   0  0  0  0  0  0  0  0  0  0  0  0
    5.6105   -5.3380    2.9006 C   0  0  0  0  0  0  0  0  0  0  0  0
    6.1126   -6.0648    3.9785 C   0  0  0  0  0  0  0  0  0  0  0  0
    7.4871   -6.2641    4.1001 C   0  0  0  0  0  0  0  0  0  0  0  0
    8.0493   -7.1538    5.4689 Cl  0  0  0  0  0  0  0  0  0  0  0  0
    8.3527   -5.7425    3.1313 C   0  0  0  0  0  0  0  0  0  0  0  0
   10.0671   -5.9481    3.2198 Cl  0  0  0  0  0  0  0  0  0  0  0  0
    7.8424   -5.0165    2.0481 C   0  0  0  0  0  0  0  0  0  0  0  0
    4.8491   -2.4937    2.3185 N   0  0  0  0  0  0  0  0  0  0  0  0
    3.9897   -1.4981    2.4856 C   0  0  0  0  0  0  0  0  0  0  0  0
    3.2947   -0.9156    1.5122 N   0  0  0  0  0  0  0  0  0  0  0  0
    3.4742   -1.3949    0.2824 C   0  0  0  0  0  0  0  0  0  0  0  0
    2.7181   -0.8240   -0.7059 C   0  0  0  0  0  0  0  0  0  0  0  0
    2.7466   -1.2309   -2.0522 C   0  0  0  0  0  0  0  0  0  0  0  0
    1.9040   -0.6581   -2.9899 O   0  0  0  0  0  0  0  0  0  0  0  0
    1.0411    0.3451   -2.4200 C   0  0  0  0  0  0  0  0  0  0  0  0
    0.1216    1.0559   -3.3943 C   0  0  3  0  0  0  0  0  0  0  0  0
    0.9454    1.7165   -4.4941 C   0  0  0  0  0  0  0  0  0  0  0  0
    0.0529    2.4345   -5.3933 N   0  0  0  0  0  0  0  0  0  0  0  0
   -0.2870    2.0895   -6.6897 C   0  0  0  0  0  0  0  0  0  0  0  0
   -1.1592    2.7373   -7.2800 O   0  0  0  0  0  0  0  0  0  0  0  0
    0.3773    0.8720   -7.3991 C   0  0  0  0  0  0  0  0  0  0  0  0
   -0.0455   -0.4449   -6.7240 C   0  0  0  0  0  0  0  0  0  0  0  0
   -0.1594    0.8098   -8.8514 C   0  0  0  0  0  0  0  0  0  0  0  0
    1.9049    0.9990   -7.5370 C   0  0  0  0  0  0  0  0  0  0  0  0
   -0.7314    3.4561   -4.6805 C   0  0  0  0  0  0  0  0  0  0  0  0
   -1.4708    2.8293   -3.4857 C   0  0  0  0  0  0  0  0  0  0  0  0
   -0.5876    2.0694   -2.6446 O   0  0  0  0  0  0  0  0  0  0  0  0
    4.7184   -2.2717   -5.3491 H   0  0  0  0  0  0  0  0  0  0  0  0
    3.9620   -0.9203   -4.5027 H   0  0  0  0  0  0  0  0  0  0  0  0
    2.9568   -2.1303   -5.3737 H   0  0  0  0  0  0  0  0  0  0  0  0
    5.0350   -3.7141   -1.6619 H   0  0  0  0  0  0  0  0  0  0  0  0
    6.6575   -3.7262    0.2083 H   0  0  0  0  0  0  0  0  0  0  0  0
    4.5368   -5.1777    2.8235 H   0  0  0  0  0  0  0  0  0  0  0  0
    5.4231   -6.4595    4.7196 H   0  0  0  0  0  0  0  0  0  0  0  0
    8.5274   -4.6000    1.3141 H   0  0  0  0  0  0  0  0  0  0  0  0
    3.8367   -1.1172    3.4912 H   0  0  0  0  0  0  0  0  0  0  0  0
    2.0643   -0.0327   -0.3503 H   0  0  0  0  0  0  0  0  0  0  0  0
    1.6577    1.1307   -1.9614 H   0  0  0  0  0  0  0  0  0  0  0  0
    0.3988   -0.1155   -1.6580 H   0  0  0  0  0  0  0  0  0  0  0  0
   -0.6055    0.3494   -3.8114 H   0  0  0  0  0  0  0  0  0  0  0  0
    1.5422    0.9657   -4.9888 H   0  0  0  0  0  0  0  0  0  0  0  0
    1.6331    2.4612   -4.0734 H   0  0  0  0  0  0  0  0  0  0  0  0
   -1.1384   -0.5097   -6.6512 H   0  0  0  0  0  0  0  0  0  0  0  0
    0.3438   -0.5649   -5.7132 H   0  0  0  0  0  0  0  0  0  0  0  0
    0.3037   -1.3134   -7.2928 H   0  0  0  0  0  0  0  0  0  0  0  0
   -1.2503    0.7115   -8.8768 H   0  0  0  0  0  0  0  0  0  0  0  0
    0.2637   -0.0452   -9.3918 H   0  0  0  0  0  0  0  0  0  0  0  0
    0.1056    1.7174   -9.4067 H   0  0  0  0  0  0  0  0  0  0  0  0
    2.4611    1.0106   -6.6018 H   0  0  0  0  0  0  0  0  0  0  0  0
    2.1695    1.9261   -8.0571 H   0  0  0  0  0  0  0  0  0  0  0  0
    2.3113    0.1588   -8.1121 H   0  0  0  0  0  0  0  0  0  0  0  0
   -1.4470    3.9640   -5.3326 H   0  0  0  0  0  0  0  0  0  0  0  0
   -0.0160    4.2039   -4.3172 H   0  0  0  0  0  0  0  0  0  0  0  0
   -2.2801    2.1707   -3.8178 H   0  0  0  0  0  0  0  0  0  0  0  0
   -1.9100    3.6165   -2.8636 H   0  0  0  0  0  0  0  0  0  0  0  0
  1  2  1  0  0  0  0
  1 36  1  0  0  0  0
  1 37  1  0  0  0  0
  1 38  1  0  0  0  0
  2  3  1  0  0  0  0
  3  4  1  0  0  0  0
  3 21  2  0  0  0  0
  4  5  2  0  0  0  0
  4 39  1  0  0  0  0
  5  6  1  0  0  0  0
  5 19  1  0  0  0  0
  6  7  1  0  0  0  0
  6 16  2  0  0  0  0
  7  8  1  0  0  0  0
  7 40  1  0  0  0  0
  8  9  1  0  0  0  0
  8 15  2  0  0  0  0
  9 10  2  0  0  0  0
  9 41  1  0  0  0  0
 10 11  1  0  0  0  0
 10 42  1  0  0  0  0
 11 12  1  0  0  0  0
 11 13  2  0  0  0  0
 13 14  1  0  0  0  0
 13 15  1  0  0  0  0
 15 43  1  0  0  0  0
 16 17  1  0  0  0  0
 17 18  2  0  0  0  0
 17 44  1  0  0  0  0
 18 19  1  0  0  0  0
 19 20  2  0  0  0  0
 20 21  1  0  0  0  0
 20 45  1  0  0  0  0
 21 22  1  0  0  0  0
 22 23  1  0  0  0  0
 23 24  1  0  0  0  0
 23 46  1  0  0  0  0
 23 47  1  0  0  0  0
 24 25  1  0  0  0  0
 24 35  1  0  0  0  0
 24 48  1  0  0  0  0
 25 26  1  0  0  0  0
 25 49  1  0  0  0  0
 25 50  1  0  0  0  0
 26 27  1  0  0  0  0
 26 33  1  0  0  0  0
 27 28  2  0  0  0  0
 27 29  1  0  0  0  0
 29 30  1  0  0  0  0
 29 31  1  0  0  0  0
 29 32  1  0  0  0  0
 30 51  1  0  0  0  0
 30 52  1  0  0  0  0
 30 53  1  0  0  0  0
 31 54  1  0  0  0  0
 31 55  1  0  0  0  0
 31 56  1  0  0  0  0
 32 57  1  0  0  0  0
 32 58  1  0  0  0  0
 32 59  1  0  0  0  0
 33 34  1  0  0  0  0
 33 60  1  0  0  0  0
 33 61  1  0  0  0  0
 34 35  1  0  0  0  0
 34 62  1  0  0  0  0
 34 63  1  0  0  0  0
M  END
$$$$
