CHEMBL3696083
 OpenBabel04072215373D

 59 61  0  0  0  0  0  0  0  0999 V2000
    1.9599   -0.4172    2.5937 C   0  0  0  0  0  0  0  0  0  0  0  0
    0.5656   -0.2575    2.0662 C   0  0  0  0  0  0  0  0  0  0  0  0
   -0.0302    0.9991    2.0705 C   0  0  0  0  0  0  0  0  0  0  0  0
   -1.3236    1.1702    1.5811 C   0  0  0  0  0  0  0  0  0  0  0  0
   -2.0640    0.1003    1.0664 C   0  0  0  0  0  0  0  0  0  0  0  0
   -3.3873    0.2501    0.5644 N   0  0  0  0  0  0  0  0  0  0  0  0
   -4.0551    1.4586    0.4433 C   0  0  0  0  0  0  0  0  0  0  0  0
   -3.5694    2.5573    0.7093 O   0  0  0  0  0  0  0  0  0  0  0  0
   -5.3690    1.3229    0.0279 N   0  0  0  0  0  0  0  0  0  0  0  0
   -6.1455    2.5016   -0.1197 C   0  0  0  0  0  0  0  0  0  0  0  0
   -5.6578    3.5866   -0.8546 C   0  0  0  0  0  0  0  0  0  0  0  0
   -6.3835    4.7747   -0.9296 C   0  0  0  0  0  0  0  0  0  0  0  0
   -7.6230    4.8990   -0.2854 C   0  0  0  0  0  0  0  0  0  0  0  0
   -8.4190    6.1229   -0.4901 C   0  0  0  0  0  0  0  0  0  0  0  0
   -8.3390    6.6806   -1.7064 N   0  0  0  0  0  0  0  0  0  0  0  0
   -9.3645    7.9549   -1.8177 S   0  0  0  0  0  0  0  0  0  0  0  0
   -9.9708    7.8243   -0.2343 C   0  0  0  0  0  0  0  0  0  0  0  0
  -10.9975    8.6766    0.1527 N   0  0  0  0  0  0  0  0  0  0  0  0
  -10.7703   10.0346    0.0500 C   0  0  0  0  0  0  0  0  0  0  0  0
   -9.6938   10.5409   -0.2548 O   0  0  0  0  0  0  0  0  0  0  0  0
  -11.8953   10.7907    0.2805 N   0  0  0  0  0  0  0  0  0  0  0  0
  -11.8110   12.2441    0.2658 C   0  0  0  0  0  0  0  0  0  0  0  0
  -11.4409   12.8264   -1.1070 C   0  0  0  0  0  0  0  0  0  0  0  0
  -12.4212   12.4377   -2.2118 C   0  0  0  0  0  0  0  0  0  0  0  0
  -13.8046   12.9705   -1.9347 C   0  0  0  0  0  0  0  0  0  0  0  0
  -14.0431   14.0031   -1.3275 O   0  0  0  0  0  0  0  0  0  0  0  0
  -14.7852   12.1929   -2.4453 O   0  0  0  0  0  0  0  0  0  0  0  0
   -9.3268    6.7940    0.4334 C   0  0  0  0  0  0  0  0  0  0  0  0
   -9.5732    6.5305    1.8393 C   0  0  0  0  0  0  0  0  0  0  0  0
   -8.5052    6.0841    2.5726 N   0  0  0  0  0  0  0  0  0  0  0  0
  -10.6481    6.7467    2.3741 O   0  0  0  0  0  0  0  0  0  0  0  0
   -8.1091    3.8049    0.4458 C   0  0  0  0  0  0  0  0  0  0  0  0
   -7.3804    2.6076    0.5196 C   0  0  0  0  0  0  0  0  0  0  0  0
   -1.4664   -1.1652    1.0621 C   0  0  0  0  0  0  0  0  0  0  0  0
   -0.1611   -1.3421    1.5581 C   0  0  0  0  0  0  0  0  0  0  0  0
    2.3558    0.5394    2.9571 H   0  0  0  0  0  0  0  0  0  0  0  0
    2.6279   -0.7702    1.8030 H   0  0  0  0  0  0  0  0  0  0  0  0
    1.9740   -1.1181    3.4329 H   0  0  0  0  0  0  0  0  0  0  0  0
    0.4978    1.8704    2.4524 H   0  0  0  0  0  0  0  0  0  0  0  0
   -1.7107    2.1802    1.6238 H   0  0  0  0  0  0  0  0  0  0  0  0
   -3.8231   -0.5662    0.1606 H   0  0  0  0  0  0  0  0  0  0  0  0
   -5.8452    0.5079    0.3853 H   0  0  0  0  0  0  0  0  0  0  0  0
   -4.7033    3.5221   -1.3730 H   0  0  0  0  0  0  0  0  0  0  0  0
   -5.9778    5.5973   -1.5162 H   0  0  0  0  0  0  0  0  0  0  0  0
  -11.5219    8.3893    0.9725 H   0  0  0  0  0  0  0  0  0  0  0  0
  -12.6422   10.3704    0.8155 H   0  0  0  0  0  0  0  0  0  0  0  0
  -11.0610   12.5456    1.0061 H   0  0  0  0  0  0  0  0  0  0  0  0
  -12.7785   12.6276    0.6039 H   0  0  0  0  0  0  0  0  0  0  0  0
  -10.4410   12.4961   -1.4088 H   0  0  0  0  0  0  0  0  0  0  0  0
  -11.3829   13.9181   -1.0230 H   0  0  0  0  0  0  0  0  0  0  0  0
  -12.4518   11.3471   -2.3075 H   0  0  0  0  0  0  0  0  0  0  0  0
  -12.0892   12.8485   -3.1714 H   0  0  0  0  0  0  0  0  0  0  0  0
  -14.4565   11.4051   -2.9188 H   0  0  0  0  0  0  0  0  0  0  0  0
   -7.5567    6.1076    2.2263 H   0  0  0  0  0  0  0  0  0  0  0  0
   -8.6395    5.9628    3.5693 H   0  0  0  0  0  0  0  0  0  0  0  0
   -9.0650    3.8576    0.9604 H   0  0  0  0  0  0  0  0  0  0  0  0
   -7.7645    1.7917    1.1244 H   0  0  0  0  0  0  0  0  0  0  0  0
   -1.9953   -2.0327    0.6775 H   0  0  0  0  0  0  0  0  0  0  0  0
    0.2862   -2.3346    1.5424 H   0  0  0  0  0  0  0  0  0  0  0  0
  1  2  1  0  0  0  0
  1 36  1  0  0  0  0
  1 37  1  0  0  0  0
  1 38  1  0  0  0  0
  2  3  1  0  0  0  0
  2 35  2  0  0  0  0
  3  4  2  0  0  0  0
  3 39  1  0  0  0  0
  4  5  1  0  0  0  0
  4 40  1  0  0  0  0
  5  6  1  0  0  0  0
  5 34  2  0  0  0  0
  6  7  1  0  0  0  0
  6 41  1  0  0  0  0
  7  8  2  0  0  0  0
  7  9  1  0  0  0  0
  9 10  1  0  0  0  0
  9 42  1  0  0  0  0
 10 11  1  0  0  0  0
 10 33  2  0  0  0  0
 11 12  2  0  0  0  0
 11 43  1  0  0  0  0
 12 13  1  0  0  0  0
 12 44  1  0  0  0  0
 13 14  1  0  0  0  0
 13 32  2  0  0  0  0
 14 15  2  0  0  0  0
 14 28  1  0  0  0  0
 15 16  1  0  0  0  0
 16 17  1  0  0  0  0
 17 18  1  0  0  0  0
 17 28  2  0  0  0  0
 18 19  1  0  0  0  0
 18 45  1  0  0  0  0
 19 20  2  0  0  0  0
 19 21  1  0  0  0  0
 21 22  1  0  0  0  0
 21 46  1  0  0  0  0
 22 23  1  0  0  0  0
 22 47  1  0  0  0  0
 22 48  1  0  0  0  0
 23 24  1  0  0  0  0
 23 49  1  0  0  0  0
 23 50  1  0  0  0  0
 24 25  1  0  0  0  0
 24 51  1  0  0  0  0
 24 52  1  0  0  0  0
 25 26  2  0  0  0  0
 25 27  1  0  0  0  0
 27 53  1  0  0  0  0
 28 29  1  0  0  0  0
 29 30  1  0  0  0  0
 29 31  2  0  0  0  0
 30 54  1  0  0  0  0
 30 55  1  0  0  0  0
 32 33  1  0  0  0  0
 32 56  1  0  0  0  0
 33 57  1  0  0  0  0
 34 35  1  0  0  0  0
 34 58  1  0  0  0  0
 35 59  1  0  0  0  0
M  END
$$$$
