CHEMBL43949
 OpenBabel04072215383D

 39 42  0  0  0  0  0  0  0  0999 V2000
    0.7341    0.2286    2.3030 C   0  0  0  0  0  0  0  0  0  0  0  0
    0.2594   -0.9411    1.7208 C   0  0  0  0  0  0  0  0  0  0  0  0
   -0.8842   -0.9037    0.9234 C   0  0  0  0  0  0  0  0  0  0  0  0
   -1.5761    0.2962    0.6977 C   0  0  0  0  0  0  0  0  0  0  0  0
   -2.7424    0.3510   -0.0928 N   0  0  0  0  0  0  0  0  0  0  0  0
   -3.6377   -0.6998   -0.2924 C   0  0  0  0  0  0  0  0  0  0  0  0
   -4.3134   -0.7603   -1.4453 N   0  0  0  0  0  0  0  0  0  0  0  0
   -5.1342   -1.8192   -1.6100 C   0  0  0  0  0  0  0  0  0  0  0  0
   -5.3109   -2.8130   -0.6754 C   0  0  0  0  0  0  0  0  0  0  0  0
   -4.6350   -2.6270    0.5040 C   0  0  0  0  0  0  0  0  0  0  0  0
   -4.8049   -3.5135    1.6007 N   0  0  0  0  0  0  0  0  0  0  0  0
   -5.0322   -4.8717    1.5070 C   0  0  0  0  0  0  0  0  0  0  0  0
   -4.9075   -5.3572    2.7838 C   0  0  0  0  0  0  0  0  0  0  0  0
   -4.7141   -4.3389    3.6715 N   0  0  0  0  0  0  0  0  0  0  0  0
   -4.7107   -3.2137    2.9661 C   0  0  0  0  0  0  0  0  0  0  0  0
   -4.6753   -1.8659    3.5776 C   0  0  0  0  0  0  0  0  0  0  0  0
   -4.0162   -1.6762    4.8005 C   0  0  0  0  0  0  0  0  0  0  0  0
   -3.9235   -0.4044    5.3788 C   0  0  0  0  0  0  0  0  0  0  0  0
   -4.4823    0.6995    4.7389 C   0  0  0  0  0  0  0  0  0  0  0  0
   -5.1799    0.5244    3.5502 C   0  0  0  0  0  0  0  0  0  0  0  0
   -5.3078   -0.7531    2.9999 C   0  0  0  0  0  0  0  0  0  0  0  0
   -3.7960   -1.5939    0.6869 N   0  0  0  0  0  0  0  0  0  0  0  0
   -1.0716    1.4675    1.2690 C   0  0  0  0  0  0  0  0  0  0  0  0
    0.0717    1.4331    2.0778 C   0  0  0  0  0  0  0  0  0  0  0  0
    1.6145    0.1980    2.9387 H   0  0  0  0  0  0  0  0  0  0  0  0
    0.7632   -1.8874    1.8954 H   0  0  0  0  0  0  0  0  0  0  0  0
   -1.2331   -1.8341    0.4847 H   0  0  0  0  0  0  0  0  0  0  0  0
   -2.6425    0.8818   -0.9465 H   0  0  0  0  0  0  0  0  0  0  0  0
   -5.6787   -1.8338   -2.5510 H   0  0  0  0  0  0  0  0  0  0  0  0
   -6.0029   -3.6275   -0.8502 H   0  0  0  0  0  0  0  0  0  0  0  0
   -5.1530   -5.3813    0.5626 H   0  0  0  0  0  0  0  0  0  0  0  0
   -4.9416   -6.3888    3.1109 H   0  0  0  0  0  0  0  0  0  0  0  0
   -3.5614   -2.5245    5.3082 H   0  0  0  0  0  0  0  0  0  0  0  0
   -3.4026   -0.2760    6.3233 H   0  0  0  0  0  0  0  0  0  0  0  0
   -4.3786    1.6927    5.1661 H   0  0  0  0  0  0  0  0  0  0  0  0
   -5.6160    1.3774    3.0378 H   0  0  0  0  0  0  0  0  0  0  0  0
   -5.8839   -0.8485    2.0848 H   0  0  0  0  0  0  0  0  0  0  0  0
   -1.5914    2.4114    1.1286 H   0  0  0  0  0  0  0  0  0  0  0  0
    0.4349    2.3449    2.5442 H   0  0  0  0  0  0  0  0  0  0  0  0
  1  2  1  0  0  0  0
  1 24  2  0  0  0  0
  1 25  1  0  0  0  0
  2  3  2  0  0  0  0
  2 26  1  0  0  0  0
  3  4  1  0  0  0  0
  3 27  1  0  0  0  0
  4  5  1  0  0  0  0
  4 23  2  0  0  0  0
  5  6  1  0  0  0  0
  5 28  1  0  0  0  0
  6  7  1  0  0  0  0
  6 22  2  0  0  0  0
  7  8  2  0  0  0  0
  8  9  1  0  0  0  0
  8 29  1  0  0  0  0
  9 10  2  0  0  0  0
  9 30  1  0  0  0  0
 10 11  1  0  0  0  0
 10 22  1  0  0  0  0
 11 12  1  0  0  0  0
 11 15  1  0  0  0  0
 12 13  2  0  0  0  0
 12 31  1  0  0  0  0
 13 14  1  0  0  0  0
 13 32  1  0  0  0  0
 14 15  2  0  0  0  0
 15 16  1  0  0  0  0
 16 17  1  0  0  0  0
 16 21  2  0  0  0  0
 17 18  2  0  0  0  0
 17 33  1  0  0  0  0
 18 19  1  0  0  0  0
 18 34  1  0  0  0  0
 19 20  2  0  0  0  0
 19 35  1  0  0  0  0
 20 21  1  0  0  0  0
 20 36  1  0  0  0  0
 21 37  1  0  0  0  0
 23 24  1  0  0  0  0
 23 38  1  0  0  0  0
 24 39  1  0  0  0  0
M  END
$$$$
