CHEMBL1241484
 OpenBabel04072215363D

 35 37  0  0  0  0  0  0  0  0999 V2000
    1.3107    1.0241    0.2950 C   0  0  0  0  0  0  0  0  0  0  0  0
    2.4815    0.0648    0.0828 C   0  0  0  0  0  0  0  0  0  0  0  0
    3.6236    0.7468   -0.6725 C   0  0  0  0  0  0  0  0  0  0  0  0
    2.9356   -0.5095    1.3454 N   0  0  0  0  0  0  0  0  0  0  0  0
    3.4528    0.2818    2.3062 N   0  0  0  0  0  0  0  0  0  0  0  0
    3.7464   -0.5558    3.3175 C   0  0  0  0  0  0  0  0  0  0  0  0
    4.3807   -0.0352    4.5353 C   0  0  0  0  0  0  0  0  0  0  0  0
    5.3130   -0.8022    5.2514 C   0  0  0  0  0  0  0  0  0  0  0  0
    5.8784   -0.3274    6.4390 C   0  0  0  0  0  0  0  0  0  0  0  0
    5.5614    0.9490    6.8901 C   0  0  0  0  0  0  0  0  0  0  0  0
    6.2715    1.5358    8.3462 Cl  0  0  0  0  0  0  0  0  0  0  0  0
    4.6814    1.7454    6.1555 C   0  0  0  0  0  0  0  0  0  0  0  0
    4.3741    3.0227    6.5386 O   0  0  0  0  0  0  0  0  0  0  0  0
    4.0855    1.2583    4.9927 C   0  0  0  0  0  0  0  0  0  0  0  0
    3.3582   -1.8990    3.0005 C   0  0  0  0  0  0  0  0  0  0  0  0
    3.3382   -3.1700    3.5986 C   0  0  0  0  0  0  0  0  0  0  0  0
    3.7197   -3.4563    4.9034 N   0  0  0  0  0  0  0  0  0  0  0  0
    2.9016   -4.2220    2.8750 N   0  0  0  0  0  0  0  0  0  0  0  0
    2.4808   -4.0105    1.6150 C   0  0  0  0  0  0  0  0  0  0  0  0
    2.4147   -2.8452    0.9548 N   0  0  0  0  0  0  0  0  0  0  0  0
    2.8713   -1.8285    1.7060 C   0  0  0  0  0  0  0  0  0  0  0  0
    0.9387    1.4004   -0.6641 H   0  0  0  0  0  0  0  0  0  0  0  0
    1.6000    1.8866    0.9055 H   0  0  0  0  0  0  0  0  0  0  0  0
    0.4816    0.5197    0.8033 H   0  0  0  0  0  0  0  0  0  0  0  0
    2.1246   -0.7662   -0.5381 H   0  0  0  0  0  0  0  0  0  0  0  0
    4.0236    1.6016   -0.1164 H   0  0  0  0  0  0  0  0  0  0  0  0
    3.2787    1.1110   -1.6457 H   0  0  0  0  0  0  0  0  0  0  0  0
    4.4481    0.0470   -0.8479 H   0  0  0  0  0  0  0  0  0  0  0  0
    5.6231   -1.7806    4.8901 H   0  0  0  0  0  0  0  0  0  0  0  0
    6.5694   -0.9573    6.9932 H   0  0  0  0  0  0  0  0  0  0  0  0
    4.9161    3.2261    7.3236 H   0  0  0  0  0  0  0  0  0  0  0  0
    3.3981    1.8959    4.4398 H   0  0  0  0  0  0  0  0  0  0  0  0
    3.5065   -2.7302    5.5759 H   0  0  0  0  0  0  0  0  0  0  0  0
    3.4055   -4.3872    5.1606 H   0  0  0  0  0  0  0  0  0  0  0  0
    2.1523   -4.8902    1.0697 H   0  0  0  0  0  0  0  0  0  0  0  0
  1  2  1  0  0  0  0
  1 22  1  0  0  0  0
  1 23  1  0  0  0  0
  1 24  1  0  0  0  0
  2  3  1  0  0  0  0
  2  4  1  0  0  0  0
  2 25  1  0  0  0  0
  3 26  1  0  0  0  0
  3 27  1  0  0  0  0
  3 28  1  0  0  0  0
  4  5  1  0  0  0  0
  4 21  1  0  0  0  0
  5  6  2  0  0  0  0
  6  7  1  0  0  0  0
  6 15  1  0  0  0  0
  7  8  1  0  0  0  0
  7 14  2  0  0  0  0
  8  9  2  0  0  0  0
  8 29  1  0  0  0  0
  9 10  1  0  0  0  0
  9 30  1  0  0  0  0
 10 11  1  0  0  0  0
 10 12  2  0  0  0  0
 12 13  1  0  0  0  0
 12 14  1  0  0  0  0
 13 31  1  0  0  0  0
 14 32  1  0  0  0  0
 15 16  1  0  0  0  0
 15 21  2  0  0  0  0
 16 17  1  0  0  0  0
 16 18  2  0  0  0  0
 17 33  1  0  0  0  0
 17 34  1  0  0  0  0
 18 19  1  0  0  0  0
 19 20  2  0  0  0  0
 19 35  1  0  0  0  0
 20 21  1  0  0  0  0
M  END
$$$$
