CHEMBL3921873
 OpenBabel04072215373D

 53 57  0  0  0  0  0  0  0  0999 V2000
    2.0467   -0.6029    1.0156 O   0  0  0  0  0  0  0  0  0  0  0  0
    3.1305   -0.1343    0.6818 C   0  0  0  0  0  0  0  0  0  0  0  0
    3.5279    1.1899    0.7874 N   0  0  0  0  0  0  0  0  0  0  0  0
    2.7506    2.2265    1.3547 C   0  0  0  0  0  0  0  0  0  0  0  0
    1.6267    1.9756    2.1450 C   0  0  0  0  0  0  0  0  0  0  0  0
    0.8114    3.0175    2.5797 C   0  0  0  0  0  0  0  0  0  0  0  0
    1.1269    4.3267    2.2467 C   0  0  0  0  0  0  0  0  0  0  0  0
    2.3176    4.6054    1.5797 C   0  0  0  0  0  0  0  0  0  0  0  0
    2.7400    5.8732    1.2672 O   0  0  0  0  0  0  0  0  0  0  0  0
    2.5128    6.9426    2.1113 C   0  0  0  0  0  0  0  0  0  0  0  0
    2.1930    6.8793    3.4768 C   0  0  0  0  0  0  0  0  0  0  0  0
    1.9338    8.0436    4.2335 C   0  0  0  0  0  0  0  0  0  0  0  0
    2.2065    9.2858    3.6351 C   0  0  0  0  0  0  0  0  0  0  0  0
    2.2526   10.6845    3.9735 C   0  0  0  0  0  0  0  0  0  0  0  0
    1.2497   11.7065    3.6847 C   0  0  0  0  0  0  0  0  0  0  0  0
    0.1784   11.5354    2.8855 C   0  0  0  0  0  0  0  0  0  0  0  0
   -0.3027   12.6043    1.9783 C   0  0  0  0  0  0  0  0  0  0  0  0
   -1.3648   12.3546    1.1145 C   0  0  0  0  0  0  0  0  0  0  0  0
   -1.6726   13.2887    0.1238 C   0  0  0  0  0  0  0  0  0  0  0  0
   -0.9074   14.4420    0.0080 C   0  0  0  0  0  0  0  0  0  0  0  0
    0.1331   14.6169    0.9035 C   0  0  0  0  0  0  0  0  0  0  0  0
    0.4474   13.7317    1.8775 N   0  0  0  0  0  0  0  0  0  0  0  0
    3.4806   11.0761    3.5604 N   0  0  0  0  0  0  0  0  0  0  0  0
    3.5425   10.4194    2.3926 N   0  0  0  0  0  0  0  0  0  0  0  0
    2.8280    9.2548    2.3921 C   0  0  0  0  0  0  0  0  0  0  0  0
    2.8053    8.1745    1.5225 C   0  0  0  0  0  0  0  0  0  0  0  0
    3.1161    3.5540    1.1066 C   0  0  0  0  0  0  0  0  0  0  0  0
    4.1028   -1.0593    0.0463 C   0  0  0  0  0  0  0  0  0  0  0  0
    3.5997   -2.1101   -0.7321 C   0  0  0  0  0  0  0  0  0  0  0  0
    4.4662   -3.0372   -1.3090 C   0  0  0  0  0  0  0  0  0  0  0  0
    5.8377   -2.9202   -1.0987 C   0  0  0  0  0  0  0  0  0  0  0  0
    6.3429   -1.8863   -0.3121 C   0  0  0  0  0  0  0  0  0  0  0  0
    5.4806   -0.9518    0.2640 C   0  0  0  0  0  0  0  0  0  0  0  0
    4.3582    1.4698    0.2817 H   0  0  0  0  0  0  0  0  0  0  0  0
    1.3489    0.9677    2.4348 H   0  0  0  0  0  0  0  0  0  0  0  0
   -0.0747    2.7995    3.1684 H   0  0  0  0  0  0  0  0  0  0  0  0
    0.4454    5.1195    2.5382 H   0  0  0  0  0  0  0  0  0  0  0  0
    2.1729    5.9236    3.9953 H   0  0  0  0  0  0  0  0  0  0  0  0
    1.6787    7.9662    5.2855 H   0  0  0  0  0  0  0  0  0  0  0  0
    1.6349   12.7204    3.8119 H   0  0  0  0  0  0  0  0  0  0  0  0
   -0.2063   10.5432    2.6805 H   0  0  0  0  0  0  0  0  0  0  0  0
   -1.9290   11.4304    1.1766 H   0  0  0  0  0  0  0  0  0  0  0  0
   -2.4876   13.1021   -0.5706 H   0  0  0  0  0  0  0  0  0  0  0  0
   -1.1103   15.1790   -0.7620 H   0  0  0  0  0  0  0  0  0  0  0  0
    0.7744   15.4933    0.8456 H   0  0  0  0  0  0  0  0  0  0  0  0
    4.2265   10.7265    1.7038 H   0  0  0  0  0  0  0  0  0  0  0  0
    3.1627    8.2435    0.5023 H   0  0  0  0  0  0  0  0  0  0  0  0
    4.0005    3.7895    0.5195 H   0  0  0  0  0  0  0  0  0  0  0  0
    2.5264   -2.2131   -0.8824 H   0  0  0  0  0  0  0  0  0  0  0  0
    4.0652   -3.8519   -1.9069 H   0  0  0  0  0  0  0  0  0  0  0  0
    6.5150   -3.6541   -1.5378 H   0  0  0  0  0  0  0  0  0  0  0  0
    7.4149   -1.8188   -0.1347 H   0  0  0  0  0  0  0  0  0  0  0  0
    5.8887   -0.1785    0.9091 H   0  0  0  0  0  0  0  0  0  0  0  0
  1  2  2  0  0  0  0
  2  3  1  0  0  0  0
  2 28  1  0  0  0  0
  3  4  1  0  0  0  0
  3 34  1  0  0  0  0
  4  5  1  0  0  0  0
  4 27  2  0  0  0  0
  5  6  2  0  0  0  0
  5 35  1  0  0  0  0
  6  7  1  0  0  0  0
  6 36  1  0  0  0  0
  7  8  2  0  0  0  0
  7 37  1  0  0  0  0
  8  9  1  0  0  0  0
  8 27  1  0  0  0  0
  9 10  1  0  0  0  0
 10 11  1  0  0  0  0
 10 26  2  0  0  0  0
 11 12  2  0  0  0  0
 11 38  1  0  0  0  0
 12 13  1  0  0  0  0
 12 39  1  0  0  0  0
 13 14  1  0  0  0  0
 13 25  2  0  0  0  0
 14 15  1  0  0  0  0
 14 23  2  0  0  0  0
 15 16  2  0  0  0  0
 15 40  1  0  0  0  0
 16 17  1  0  0  0  0
 16 41  1  0  0  0  0
 17 18  1  0  0  0  0
 17 22  2  0  0  0  0
 18 19  2  0  0  0  0
 18 42  1  0  0  0  0
 19 20  1  0  0  0  0
 19 43  1  0  0  0  0
 20 21  2  0  0  0  0
 20 44  1  0  0  0  0
 21 22  1  0  0  0  0
 21 45  1  0  0  0  0
 23 24  1  0  0  0  0
 24 25  1  0  0  0  0
 24 46  1  0  0  0  0
 25 26  1  0  0  0  0
 26 47  1  0  0  0  0
 27 48  1  0  0  0  0
 28 29  1  0  0  0  0
 28 33  2  0  0  0  0
 29 30  2  0  0  0  0
 29 49  1  0  0  0  0
 30 31  1  0  0  0  0
 30 50  1  0  0  0  0
 31 32  2  0  0  0  0
 31 51  1  0  0  0  0
 32 33  1  0  0  0  0
 32 52  1  0  0  0  0
 33 53  1  0  0  0  0
M  END
$$$$
