CHEMBL222315
 OpenBabel04072215363D

 47 50  0  0  0  0  0  0  0  0999 V2000
   -1.0313    2.0738   -3.2207 N   0  0  0  0  0  0  0  0  0  0  0  0
   -1.3214    0.9723   -2.5149 C   0  0  0  0  0  0  0  0  0  0  0  0
   -1.7188   -0.1273   -3.1473 N   0  0  0  0  0  0  0  0  0  0  0  0
   -1.9230   -1.0042   -2.1647 N   0  0  0  0  0  0  0  0  0  0  0  0
   -1.6688   -0.5200   -0.9110 C   0  0  0  0  0  0  0  0  0  0  0  0
   -1.7759   -1.1527    0.3294 C   0  0  0  0  0  0  0  0  0  0  0  0
   -1.4260   -0.4129    1.4521 C   0  0  0  0  0  0  0  0  0  0  0  0
   -0.9927    0.9061    1.3275 C   0  0  0  0  0  0  0  0  0  0  0  0
   -0.8945    1.5632    0.0744 C   0  0  0  0  0  0  0  0  0  0  0  0
   -0.4395    2.9693    0.0049 C   0  0  0  0  0  0  0  0  0  0  0  0
    0.4709    3.3955   -0.9633 C   0  0  0  0  0  0  0  0  0  0  0  0
    0.8197    4.7430   -1.1075 C   0  0  0  0  0  0  0  0  0  0  0  0
    0.3540    5.7107   -0.2203 C   0  0  0  0  0  0  0  0  0  0  0  0
    0.6889    7.0857   -0.3200 N   0  0  0  0  0  0  0  0  0  0  0  0
    1.4534    7.6679   -1.3191 C   0  0  0  0  0  0  0  0  0  0  0  0
    1.9330    7.0823   -2.2885 O   0  0  0  0  0  0  0  0  0  0  0  0
    1.6813    9.1652   -1.2015 C   0  0  0  0  0  0  0  0  0  0  0  0
    2.3935    9.5849    0.0845 C   0  0  0  0  0  0  0  0  0  0  0  0
    2.7475   11.0712    0.0152 C   0  0  0  0  0  0  0  0  0  0  0  0
    1.5158   11.9355   -0.2574 C   0  0  0  0  0  0  0  0  0  0  0  0
    0.7332   11.4649   -1.4835 C   0  0  0  0  0  0  0  0  0  0  0  0
    0.3992    9.9753   -1.4044 C   0  0  0  0  0  0  0  0  0  0  0  0
   -0.4771    5.2903    0.8225 C   0  0  0  0  0  0  0  0  0  0  0  0
   -0.8793    3.9434    0.9220 C   0  0  0  0  0  0  0  0  0  0  0  0
   -1.2495    0.8038   -1.0874 C   0  0  0  0  0  0  0  0  0  0  0  0
   -1.2497    2.0448   -4.2101 H   0  0  0  0  0  0  0  0  0  0  0  0
   -1.1208    2.9949   -2.8109 H   0  0  0  0  0  0  0  0  0  0  0  0
   -2.2394   -1.9334   -2.4133 H   0  0  0  0  0  0  0  0  0  0  0  0
   -2.1086   -2.1820    0.4182 H   0  0  0  0  0  0  0  0  0  0  0  0
   -1.4837   -0.8709    2.4370 H   0  0  0  0  0  0  0  0  0  0  0  0
   -0.7075    1.4342    2.2363 H   0  0  0  0  0  0  0  0  0  0  0  0
    0.9108    2.6821   -1.6590 H   0  0  0  0  0  0  0  0  0  0  0  0
    1.4677    4.9862   -1.9419 H   0  0  0  0  0  0  0  0  0  0  0  0
    0.3089    7.6917    0.3965 H   0  0  0  0  0  0  0  0  0  0  0  0
    2.3569    9.4106   -2.0365 H   0  0  0  0  0  0  0  0  0  0  0  0
    3.3056    8.9922    0.2229 H   0  0  0  0  0  0  0  0  0  0  0  0
    1.7613    9.3994    0.9615 H   0  0  0  0  0  0  0  0  0  0  0  0
    3.4849   11.2299   -0.7824 H   0  0  0  0  0  0  0  0  0  0  0  0
    3.2213   11.3850    0.9516 H   0  0  0  0  0  0  0  0  0  0  0  0
    1.8251   12.9777   -0.3990 H   0  0  0  0  0  0  0  0  0  0  0  0
    0.8585   11.9128    0.6204 H   0  0  0  0  0  0  0  0  0  0  0  0
    1.3283   11.6535   -2.3865 H   0  0  0  0  0  0  0  0  0  0  0  0
   -0.1879   12.0489   -1.5836 H   0  0  0  0  0  0  0  0  0  0  0  0
   -0.1055    9.6617   -2.3266 H   0  0  0  0  0  0  0  0  0  0  0  0
   -0.3075    9.7983   -0.5843 H   0  0  0  0  0  0  0  0  0  0  0  0
   -0.8435    5.9938    1.5659 H   0  0  0  0  0  0  0  0  0  0  0  0
   -1.5538    3.6662    1.7309 H   0  0  0  0  0  0  0  0  0  0  0  0
  1  2  1  0  0  0  0
  1 26  1  0  0  0  0
  1 27  1  0  0  0  0
  2  3  2  0  0  0  0
  2 25  1  0  0  0  0
  3  4  1  0  0  0  0
  4  5  1  0  0  0  0
  4 28  1  0  0  0  0
  5  6  1  0  0  0  0
  5 25  2  0  0  0  0
  6  7  2  0  0  0  0
  6 29  1  0  0  0  0
  7  8  1  0  0  0  0
  7 30  1  0  0  0  0
  8  9  2  0  0  0  0
  8 31  1  0  0  0  0
  9 10  1  0  0  0  0
  9 25  1  0  0  0  0
 10 11  1  0  0  0  0
 10 24  2  0  0  0  0
 11 12  2  0  0  0  0
 11 32  1  0  0  0  0
 12 13  1  0  0  0  0
 12 33  1  0  0  0  0
 13 14  1  0  0  0  0
 13 23  2  0  0  0  0
 14 15  1  0  0  0  0
 14 34  1  0  0  0  0
 15 16  2  0  0  0  0
 15 17  1  0  0  0  0
 17 18  1  0  0  0  0
 17 22  1  0  0  0  0
 17 35  1  0  0  0  0
 18 19  1  0  0  0  0
 18 36  1  0  0  0  0
 18 37  1  0  0  0  0
 19 20  1  0  0  0  0
 19 38  1  0  0  0  0
 19 39  1  0  0  0  0
 20 21  1  0  0  0  0
 20 40  1  0  0  0  0
 20 41  1  0  0  0  0
 21 22  1  0  0  0  0
 21 42  1  0  0  0  0
 21 43  1  0  0  0  0
 22 44  1  0  0  0  0
 22 45  1  0  0  0  0
 23 24  1  0  0  0  0
 23 46  1  0  0  0  0
 24 47  1  0  0  0  0
M  END
$$$$
