CHEMBL360847
 OpenBabel04072215363D

 63 68  0  0  1  0  0  0  0  0999 V2000
    1.9376   -0.4635    0.4386 C   0  0  0  0  0  0  0  0  0  0  0  0
    3.3390   -0.7631    0.0509 N   0  0  0  0  0  0  0  0  0  0  0  0
    3.4074   -0.6799   -1.4104 C   0  0  0  0  0  0  0  0  0  0  0  0
    4.2234    0.2072    0.7305 C   0  0  0  0  0  0  0  0  0  0  0  0
    5.7878    0.2760    0.5517 C   0  0  3  0  0  0  0  0  0  0  0  0
    6.6420   -0.9093    1.0979 C   0  0  0  0  0  0  0  0  0  0  0  0
    8.1999   -0.8680    0.8334 C   0  0  0  0  0  0  0  0  0  0  0  0
    9.1345   -0.4126    1.8781 N   0  0  0  0  0  0  0  0  0  0  0  0
   10.1442    0.5235    1.6897 C   0  0  0  0  0  0  0  0  0  0  0  0
   10.7312    0.8066    2.9136 C   0  0  0  0  0  0  0  0  0  0  0  0
   10.1828   -0.1193    3.8468 C   0  0  0  0  0  0  0  0  0  0  0  0
   10.3757   -0.3326    5.2291 C   0  0  0  0  0  0  0  0  0  0  0  0
    9.7330   -1.3982    5.8617 C   0  0  0  0  0  0  0  0  0  0  0  0
    8.9219   -2.2570    5.1340 C   0  0  0  0  0  0  0  0  0  0  0  0
    8.6746   -2.0439    3.7724 C   0  0  0  0  0  0  0  0  0  0  0  0
    9.2750   -0.9378    3.1525 C   0  0  0  0  0  0  0  0  0  0  0  0
   11.6611    1.8648    3.1999 C   0  0  0  0  0  0  0  0  0  0  0  0
   11.5638    3.1694    2.8904 C   0  0  0  0  0  0  0  0  0  0  0  0
   12.7054    3.8887    3.4827 C   0  0  0  0  0  0  0  0  0  0  0  0
   12.9506    5.0717    3.3950 O   0  0  0  0  0  0  0  0  0  0  0  0
   13.4286    2.9695    4.1602 N   0  0  0  0  0  0  0  0  0  0  0  0
   12.8899    1.7461    4.0338 C   0  0  0  0  0  0  0  0  0  0  0  0
   13.3464    0.7306    4.5207 O   0  0  0  0  0  0  0  0  0  0  0  0
   10.5140    3.8007    2.1868 C   0  0  0  0  0  0  0  0  0  0  0  0
    9.2009    3.7394    2.5863 C   0  0  0  0  0  0  0  0  0  0  0  0
    8.4394    4.1182    1.5139 N   0  0  0  0  0  0  0  0  0  0  0  0
    9.2407    4.5966    0.4963 C   0  0  0  0  0  0  0  0  0  0  0  0
    8.9168    5.0924   -0.7756 C   0  0  0  0  0  0  0  0  0  0  0  0
    9.9669    5.4196   -1.6375 C   0  0  0  0  0  0  0  0  0  0  0  0
   11.2929    5.2439   -1.2529 C   0  0  0  0  0  0  0  0  0  0  0  0
   11.6058    4.7323    0.0096 C   0  0  0  0  0  0  0  0  0  0  0  0
   10.5667    4.4107    0.9046 C   0  0  0  0  0  0  0  0  0  0  0  0
    7.0694    3.6604    1.3538 C   0  0  0  0  0  0  0  0  0  0  0  0
    7.0962    2.2760    0.7167 C   0  0  0  0  0  0  0  0  0  0  0  0
    6.0902    1.4700    1.2945 O   0  0  0  0  0  0  0  0  0  0  0  0
    1.2535   -1.2337    0.0638 H   0  0  0  0  0  0  0  0  0  0  0  0
    1.5970    0.5048    0.0431 H   0  0  0  0  0  0  0  0  0  0  0  0
    1.8172   -0.4346    1.5273 H   0  0  0  0  0  0  0  0  0  0  0  0
    2.7650   -1.4509   -1.8566 H   0  0  0  0  0  0  0  0  0  0  0  0
    4.4195   -0.8660   -1.7760 H   0  0  0  0  0  0  0  0  0  0  0  0
    3.0683    0.2914   -1.7929 H   0  0  0  0  0  0  0  0  0  0  0  0
    4.0439    0.1134    1.8110 H   0  0  0  0  0  0  0  0  0  0  0  0
    3.8533    1.2139    0.4745 H   0  0  0  0  0  0  0  0  0  0  0  0
    5.9976    0.4215   -0.5149 H   0  0  0  0  0  0  0  0  0  0  0  0
    6.2726   -1.8107    0.5903 H   0  0  0  0  0  0  0  0  0  0  0  0
    6.4532   -1.0362    2.1677 H   0  0  0  0  0  0  0  0  0  0  0  0
    8.4063   -0.2771   -0.0673 H   0  0  0  0  0  0  0  0  0  0  0  0
    8.5358   -1.8897    0.6088 H   0  0  0  0  0  0  0  0  0  0  0  0
   10.3085    0.9638    0.7137 H   0  0  0  0  0  0  0  0  0  0  0  0
   11.0383    0.3080    5.8021 H   0  0  0  0  0  0  0  0  0  0  0  0
    9.8913   -1.5570    6.9256 H   0  0  0  0  0  0  0  0  0  0  0  0
    8.4613   -3.1049    5.6353 H   0  0  0  0  0  0  0  0  0  0  0  0
    8.0323   -2.7221    3.2217 H   0  0  0  0  0  0  0  0  0  0  0  0
   14.2566    3.1914    4.6921 H   0  0  0  0  0  0  0  0  0  0  0  0
    8.7466    3.2869    3.4635 H   0  0  0  0  0  0  0  0  0  0  0  0
    7.8864    5.2171   -1.0925 H   0  0  0  0  0  0  0  0  0  0  0  0
    9.7431    5.8118   -2.6266 H   0  0  0  0  0  0  0  0  0  0  0  0
   12.0955    5.4996   -1.9403 H   0  0  0  0  0  0  0  0  0  0  0  0
   12.6442    4.5822    0.2934 H   0  0  0  0  0  0  0  0  0  0  0  0
    6.5248    4.3756    0.7313 H   0  0  0  0  0  0  0  0  0  0  0  0
    6.5977    3.6531    2.3437 H   0  0  0  0  0  0  0  0  0  0  0  0
    8.0451    1.7884    0.9112 H   0  0  0  0  0  0  0  0  0  0  0  0
    6.9793    2.3538   -0.3685 H   0  0  0  0  0  0  0  0  0  0  0  0
  1  2  1  0  0  0  0
  1 36  1  0  0  0  0
  1 37  1  0  0  0  0
  1 38  1  0  0  0  0
  2  3  1  0  0  0  0
  2  4  1  0  0  0  0
  3 39  1  0  0  0  0
  3 40  1  0  0  0  0
  3 41  1  0  0  0  0
  4  5  1  0  0  0  0
  4 42  1  0  0  0  0
  4 43  1  0  0  0  0
  5  6  1  0  0  0  0
  5 35  1  0  0  0  0
  5 44  1  0  0  0  0
  6  7  1  0  0  0  0
  6 45  1  0  0  0  0
  6 46  1  0  0  0  0
  7  8  1  0  0  0  0
  7 47  1  0  0  0  0
  7 48  1  0  0  0  0
  8  9  1  0  0  0  0
  8 16  1  0  0  0  0
  9 10  2  0  0  0  0
  9 49  1  0  0  0  0
 10 11  1  0  0  0  0
 10 17  1  0  0  0  0
 11 12  1  0  0  0  0
 11 16  2  0  0  0  0
 12 13  2  0  0  0  0
 12 50  1  0  0  0  0
 13 14  1  0  0  0  0
 13 51  1  0  0  0  0
 14 15  2  0  0  0  0
 14 52  1  0  0  0  0
 15 16  1  0  0  0  0
 15 53  1  0  0  0  0
 17 18  2  0  0  0  0
 17 22  1  0  0  0  0
 18 19  1  0  0  0  0
 18 24  1  0  0  0  0
 19 20  2  0  0  0  0
 19 21  1  0  0  0  0
 21 22  1  0  0  0  0
 21 54  1  0  0  0  0
 22 23  2  0  0  0  0
 24 25  2  0  0  0  0
 24 32  1  0  0  0  0
 25 26  1  0  0  0  0
 25 55  1  0  0  0  0
 26 27  1  0  0  0  0
 26 33  1  0  0  0  0
 27 28  1  0  0  0  0
 27 32  2  0  0  0  0
 28 29  2  0  0  0  0
 28 56  1  0  0  0  0
 29 30  1  0  0  0  0
 29 57  1  0  0  0  0
 30 31  2  0  0  0  0
 30 58  1  0  0  0  0
 31 32  1  0  0  0  0
 31 59  1  0  0  0  0
 33 34  1  0  0  0  0
 33 60  1  0  0  0  0
 33 61  1  0  0  0  0
 34 35  1  0  0  0  0
 34 62  1  0  0  0  0
 34 63  1  0  0  0  0
M  END
$$$$
