CHEMBL3039525
 OpenBabel04072215363D

 83 88  0  0  0  0  0  0  0  0999 V2000
   -0.3124    2.2748   -3.1789 C   0  0  0  0  0  0  0  0  0  0  0  0
   -0.4246    0.8277   -2.9812 N   0  0  0  0  0  0  0  0  0  0  0  0
    0.5648    0.3618   -1.9967 C   0  0  0  0  0  0  0  0  0  0  0  0
    0.3981   -1.1380   -1.6511 C   0  0  0  0  0  0  0  0  0  0  0  0
   -0.9301   -1.5298   -1.1170 N   0  0  0  0  0  0  0  0  0  0  0  0
   -1.2293   -1.0760    0.2679 C   0  0  0  0  0  0  0  0  0  0  0  0
   -0.0598   -1.1080    1.2725 C   0  0  0  0  0  0  0  0  0  0  0  0
    0.3224   -2.5158    1.6993 C   0  0  0  0  0  0  0  0  0  0  0  0
   -0.7988   -3.2001    2.3357 N   0  0  0  0  0  0  0  0  0  0  0  0
   -0.4815   -4.0255    3.4124 C   0  0  0  0  0  0  0  0  0  0  0  0
    0.6679   -4.0859    3.8510 O   0  0  0  0  0  0  0  0  0  0  0  0
   -1.5103   -4.7484    3.9665 N   0  0  0  0  0  0  0  0  0  0  0  0
   -1.2891   -5.5674    5.0912 C   0  0  0  0  0  0  0  0  0  0  0  0
   -0.5845   -5.1089    6.2009 C   0  0  0  0  0  0  0  0  0  0  0  0
   -0.4744   -5.9345    7.3223 C   0  0  0  0  0  0  0  0  0  0  0  0
    0.0918   -5.5352    8.5212 O   0  0  0  0  0  0  0  0  0  0  0  0
   -0.1552   -4.2564    8.9856 C   0  0  0  0  0  0  0  0  0  0  0  0
   -1.3056   -3.5341    8.6710 C   0  0  0  0  0  0  0  0  0  0  0  0
   -1.4311   -2.2013    9.0582 C   0  0  0  0  0  0  0  0  0  0  0  0
   -0.4519   -1.5665    9.8230 C   0  0  0  0  0  0  0  0  0  0  0  0
   -0.5192   -0.1792   10.1423 N   0  0  0  0  0  0  0  0  0  0  0  0
   -1.3198    0.7133    9.4522 C   0  0  0  0  0  0  0  0  0  0  0  0
   -2.0074    0.4632    8.4569 O   0  0  0  0  0  0  0  0  0  0  0  0
   -1.3252    2.1458    9.8888 C   0  0  0  0  0  0  0  0  0  0  0  0
   -0.1531    2.9328    9.4108 C   0  0  0  0  0  0  0  0  0  0  0  0
    0.8927    2.7720   10.0279 O   0  0  0  0  0  0  0  0  0  0  0  0
   -0.3508    3.7848    8.3344 N   0  0  0  0  0  0  0  0  0  0  0  0
    0.6641    4.5998    7.7824 C   0  0  0  0  0  0  0  0  0  0  0  0
    2.0256    4.3567    8.0085 C   0  0  0  0  0  0  0  0  0  0  0  0
    3.0017    5.2534    7.5814 C   0  0  0  0  0  0  0  0  0  0  0  0
    2.6212    6.3913    6.8912 C   0  0  0  0  0  0  0  0  0  0  0  0
    3.5519    7.2805    6.5250 F   0  0  0  0  0  0  0  0  0  0  0  0
    1.2868    6.6185    6.5780 C   0  0  0  0  0  0  0  0  0  0  0  0
    0.3043    5.7171    7.0074 C   0  0  0  0  0  0  0  0  0  0  0  0
   -1.8406    2.6228   11.2483 C   0  0  0  0  0  0  0  0  0  0  0  0
   -2.7457    2.6896   10.0660 C   0  0  0  0  0  0  0  0  0  0  0  0
    0.6274   -2.3459   10.2595 C   0  0  0  0  0  0  0  0  0  0  0  0
    1.5616   -1.8041   11.0621 F   0  0  0  0  0  0  0  0  0  0  0  0
    0.7860   -3.6774    9.8398 C   0  0  0  0  0  0  0  0  0  0  0  0
   -0.9300   -7.2431    7.2375 C   0  0  0  0  0  0  0  0  0  0  0  0
   -1.5903   -7.6240    6.0793 C   0  0  0  0  0  0  0  0  0  0  0  0
   -1.8395   -6.7965    5.0367 N   0  0  0  0  0  0  0  0  0  0  0  0
   -2.0127   -3.2492    1.5195 C   0  0  0  0  0  0  0  0  0  0  0  0
   -2.3933   -1.8857    0.9129 C   0  0  0  0  0  0  0  0  0  0  0  0
   -1.9328   -1.0299   -2.1047 C   0  0  0  0  0  0  0  0  0  0  0  0
   -1.7861    0.4540   -2.5599 C   0  0  0  0  0  0  0  0  0  0  0  0
    0.7042    2.5497   -3.4841 H   0  0  0  0  0  0  0  0  0  0  0  0
   -0.5530    2.8351   -2.2674 H   0  0  0  0  0  0  0  0  0  0  0  0
   -0.9829    2.6143   -3.9763 H   0  0  0  0  0  0  0  0  0  0  0  0
    0.5095    0.9607   -1.0797 H   0  0  0  0  0  0  0  0  0  0  0  0
    1.5685    0.5026   -2.4180 H   0  0  0  0  0  0  0  0  0  0  0  0
    1.2070   -1.4558   -0.9866 H   0  0  0  0  0  0  0  0  0  0  0  0
    0.5693   -1.7183   -2.5692 H   0  0  0  0  0  0  0  0  0  0  0  0
   -1.5479   -0.0272    0.2148 H   0  0  0  0  0  0  0  0  0  0  0  0
   -0.3664   -0.5480    2.1678 H   0  0  0  0  0  0  0  0  0  0  0  0
    0.8207   -0.5791    0.8959 H   0  0  0  0  0  0  0  0  0  0  0  0
    1.1705   -2.4415    2.3880 H   0  0  0  0  0  0  0  0  0  0  0  0
    0.6468   -3.1313    0.8531 H   0  0  0  0  0  0  0  0  0  0  0  0
   -2.1837   -5.1431    3.3321 H   0  0  0  0  0  0  0  0  0  0  0  0
   -0.1757   -4.1044    6.2109 H   0  0  0  0  0  0  0  0  0  0  0  0
   -2.1061   -3.9677    8.0773 H   0  0  0  0  0  0  0  0  0  0  0  0
   -2.3279   -1.6841    8.7293 H   0  0  0  0  0  0  0  0  0  0  0  0
    0.1822    0.1894   10.7704 H   0  0  0  0  0  0  0  0  0  0  0  0
   -1.3010    3.9272    8.0089 H   0  0  0  0  0  0  0  0  0  0  0  0
    2.3606    3.4597    8.5211 H   0  0  0  0  0  0  0  0  0  0  0  0
    4.0469    5.0673    7.8029 H   0  0  0  0  0  0  0  0  0  0  0  0
    1.0173    7.5116    6.0203 H   0  0  0  0  0  0  0  0  0  0  0  0
   -0.7358    5.9247    6.7724 H   0  0  0  0  0  0  0  0  0  0  0  0
   -1.4991    3.5820   11.6291 H   0  0  0  0  0  0  0  0  0  0  0  0
   -2.0037    1.8840   12.0214 H   0  0  0  0  0  0  0  0  0  0  0  0
   -3.0057    3.6373    9.6179 H   0  0  0  0  0  0  0  0  0  0  0  0
   -3.5698    1.9778   10.0646 H   0  0  0  0  0  0  0  0  0  0  0  0
    1.6579   -4.2396   10.1606 H   0  0  0  0  0  0  0  0  0  0  0  0
   -0.7909   -7.9443    8.0518 H   0  0  0  0  0  0  0  0  0  0  0  0
   -1.9512   -8.6413    5.9533 H   0  0  0  0  0  0  0  0  0  0  0  0
   -2.8554   -3.6155    2.1144 H   0  0  0  0  0  0  0  0  0  0  0  0
   -1.8344   -3.9839    0.7259 H   0  0  0  0  0  0  0  0  0  0  0  0
   -2.8091   -1.2686    1.7212 H   0  0  0  0  0  0  0  0  0  0  0  0
   -3.2183   -2.0360    0.2083 H   0  0  0  0  0  0  0  0  0  0  0  0
   -2.9541   -1.1789   -1.7397 H   0  0  0  0  0  0  0  0  0  0  0  0
   -1.8529   -1.6646   -2.9977 H   0  0  0  0  0  0  0  0  0  0  0  0
   -2.1257    1.1081   -1.7476 H   0  0  0  0  0  0  0  0  0  0  0  0
   -2.4662    0.6155   -3.4067 H   0  0  0  0  0  0  0  0  0  0  0  0
  1  2  1  0  0  0  0
  1 47  1  0  0  0  0
  1 48  1  0  0  0  0
  1 49  1  0  0  0  0
  2  3  1  0  0  0  0
  2 46  1  0  0  0  0
  3  4  1  0  0  0  0
  3 50  1  0  0  0  0
  3 51  1  0  0  0  0
  4  5  1  0  0  0  0
  4 52  1  0  0  0  0
  4 53  1  0  0  0  0
  5  6  1  0  0  0  0
  5 45  1  0  0  0  0
  6  7  1  0  0  0  0
  6 44  1  0  0  0  0
  6 54  1  0  0  0  0
  7  8  1  0  0  0  0
  7 55  1  0  0  0  0
  7 56  1  0  0  0  0
  8  9  1  0  0  0  0
  8 57  1  0  0  0  0
  8 58  1  0  0  0  0
  9 10  1  0  0  0  0
  9 43  1  0  0  0  0
 10 11  2  0  0  0  0
 10 12  1  0  0  0  0
 12 13  1  0  0  0  0
 12 59  1  0  0  0  0
 13 14  1  0  0  0  0
 13 42  2  0  0  0  0
 14 15  2  0  0  0  0
 14 60  1  0  0  0  0
 15 16  1  0  0  0  0
 15 40  1  0  0  0  0
 16 17  1  0  0  0  0
 17 18  1  0  0  0  0
 17 39  2  0  0  0  0
 18 19  2  0  0  0  0
 18 61  1  0  0  0  0
 19 20  1  0  0  0  0
 19 62  1  0  0  0  0
 20 21  1  0  0  0  0
 20 37  2  0  0  0  0
 21 22  1  0  0  0  0
 21 63  1  0  0  0  0
 22 23  2  0  0  0  0
 22 24  1  0  0  0  0
 24 25  1  0  0  0  0
 24 35  1  0  0  0  0
 24 36  1  0  0  0  0
 25 26  2  0  0  0  0
 25 27  1  0  0  0  0
 27 28  1  0  0  0  0
 27 64  1  0  0  0  0
 28 29  1  0  0  0  0
 28 34  2  0  0  0  0
 29 30  2  0  0  0  0
 29 65  1  0  0  0  0
 30 31  1  0  0  0  0
 30 66  1  0  0  0  0
 31 32  1  0  0  0  0
 31 33  2  0  0  0  0
 33 34  1  0  0  0  0
 33 67  1  0  0  0  0
 34 68  1  0  0  0  0
 35 36  1  0  0  0  0
 35 69  1  0  0  0  0
 35 70  1  0  0  0  0
 36 71  1  0  0  0  0
 36 72  1  0  0  0  0
 37 38  1  0  0  0  0
 37 39  1  0  0  0  0
 39 73  1  0  0  0  0
 40 41  2  0  0  0  0
 40 74  1  0  0  0  0
 41 42  1  0  0  0  0
 41 75  1  0  0  0  0
 43 44  1  0  0  0  0
 43 76  1  0  0  0  0
 43 77  1  0  0  0  0
 44 78  1  0  0  0  0
 44 79  1  0  0  0  0
 45 46  1  0  0  0  0
 45 80  1  0  0  0  0
 45 81  1  0  0  0  0
 46 82  1  0  0  0  0
 46 83  1  0  0  0  0
M  END
$$$$
