CHEMBL3921563
 OpenBabel04072215373D

 55 58  0  0  0  0  0  0  0  0999 V2000
    2.5885    0.9671   -0.4898 C   0  0  0  0  0  0  0  0  0  0  0  0
    3.9949    0.5166   -0.1171 C   0  0  0  0  0  0  0  0  0  0  0  0
    3.9472   -0.8164    0.1725 F   0  0  0  0  0  0  0  0  0  0  0  0
    4.7692    0.6120   -1.2417 F   0  0  0  0  0  0  0  0  0  0  0  0
    4.5292    1.3415    1.0291 C   0  0  0  0  0  0  0  0  0  0  0  0
    5.2568    2.5083    0.7506 C   0  0  0  0  0  0  0  0  0  0  0  0
    5.6868    3.3284    1.7855 C   0  0  0  0  0  0  0  0  0  0  0  0
    5.3669    3.0058    3.1036 C   0  0  0  0  0  0  0  0  0  0  0  0
    4.6115    1.8669    3.4113 C   0  0  0  0  0  0  0  0  0  0  0  0
    4.1938    1.5789    4.7386 N   0  0  0  0  0  0  0  0  0  0  0  0
    3.9706    2.5762    5.6800 C   0  0  0  0  0  0  0  0  0  0  0  0
    4.0056    3.7745    5.4247 O   0  0  0  0  0  0  0  0  0  0  0  0
    3.7084    2.0813    6.9523 N   0  0  0  0  0  0  0  0  0  0  0  0
    3.4385    2.9931    8.0109 C   0  0  0  0  0  0  0  0  0  0  0  0
    2.5896    4.0912    7.8143 C   0  0  0  0  0  0  0  0  0  0  0  0
    2.4426    5.0786    8.7954 C   0  0  0  0  0  0  0  0  0  0  0  0
    3.0943    4.9546   10.0236 C   0  0  0  0  0  0  0  0  0  0  0  0
    3.0355    5.9116   11.0244 O   0  0  0  0  0  0  0  0  0  0  0  0
    1.8471    6.5795   11.2770 C   0  0  0  0  0  0  0  0  0  0  0  0
    0.6011    6.0084   11.0411 C   0  0  0  0  0  0  0  0  0  0  0  0
   -0.5104    6.7778   11.2847 C   0  0  0  0  0  0  0  0  0  0  0  0
   -0.4512    8.0178   11.7959 N   0  0  0  0  0  0  0  0  0  0  0  0
    0.7381    8.5590   12.1101 C   0  0  0  0  0  0  0  0  0  0  0  0
    0.7506    9.8495   12.7003 N   0  0  0  0  0  0  0  0  0  0  0  0
   -0.4219   10.5388   12.9925 C   0  0  0  0  0  0  0  0  0  0  0  0
   -1.5642   10.1428   12.8084 O   0  0  0  0  0  0  0  0  0  0  0  0
   -0.3333   11.8986   13.6022 C   0  0  0  0  0  0  0  0  0  0  0  0
    0.8564   12.7703   13.8651 C   0  0  0  0  0  0  0  0  0  0  0  0
    0.2008   12.0480   15.0087 C   0  0  0  0  0  0  0  0  0  0  0  0
    1.9221    7.8641   11.8551 C   0  0  0  0  0  0  0  0  0  0  0  0
    3.9199    3.8400   10.2233 C   0  0  0  0  0  0  0  0  0  0  0  0
    4.6132    3.7172   11.3653 F   0  0  0  0  0  0  0  0  0  0  0  0
    4.0774    2.8487    9.2420 C   0  0  0  0  0  0  0  0  0  0  0  0
    4.2380    1.0093    2.3700 C   0  0  0  0  0  0  0  0  0  0  0  0
    2.2269    0.4057   -1.3569 H   0  0  0  0  0  0  0  0  0  0  0  0
    2.5659    2.0305   -0.7530 H   0  0  0  0  0  0  0  0  0  0  0  0
    1.8873    0.7966    0.3338 H   0  0  0  0  0  0  0  0  0  0  0  0
    5.4849    2.7855   -0.2774 H   0  0  0  0  0  0  0  0  0  0  0  0
    6.2476    4.2350    1.5720 H   0  0  0  0  0  0  0  0  0  0  0  0
    5.7170    3.6772    3.8838 H   0  0  0  0  0  0  0  0  0  0  0  0
    3.6916    0.7166    4.8913 H   0  0  0  0  0  0  0  0  0  0  0  0
    4.2204    1.2415    7.1848 H   0  0  0  0  0  0  0  0  0  0  0  0
    2.0562    4.2109    6.8727 H   0  0  0  0  0  0  0  0  0  0  0  0
    1.8261    5.9436    8.5674 H   0  0  0  0  0  0  0  0  0  0  0  0
    0.4759    5.0027   10.6602 H   0  0  0  0  0  0  0  0  0  0  0  0
   -1.5116    6.4156   11.0730 H   0  0  0  0  0  0  0  0  0  0  0  0
    1.6408   10.2643   12.9371 H   0  0  0  0  0  0  0  0  0  0  0  0
   -1.2476   12.4583   13.3935 H   0  0  0  0  0  0  0  0  0  0  0  0
    0.6980   13.8461   13.8117 H   0  0  0  0  0  0  0  0  0  0  0  0
    1.8402   12.4619   13.5507 H   0  0  0  0  0  0  0  0  0  0  0  0
   -0.4172   12.6053   15.7056 H   0  0  0  0  0  0  0  0  0  0  0  0
    0.7394   11.2251   15.4606 H   0  0  0  0  0  0  0  0  0  0  0  0
    2.8896    8.2891   12.0953 H   0  0  0  0  0  0  0  0  0  0  0  0
    4.7611    2.0290    9.4333 H   0  0  0  0  0  0  0  0  0  0  0  0
    3.6720    0.1038    2.5763 H   0  0  0  0  0  0  0  0  0  0  0  0
  1  2  1  0  0  0  0
  1 35  1  0  0  0  0
  1 36  1  0  0  0  0
  1 37  1  0  0  0  0
  2  3  1  0  0  0  0
  2  4  1  0  0  0  0
  2  5  1  0  0  0  0
  5  6  1  0  0  0  0
  5 34  2  0  0  0  0
  6  7  2  0  0  0  0
  6 38  1  0  0  0  0
  7  8  1  0  0  0  0
  7 39  1  0  0  0  0
  8  9  2  0  0  0  0
  8 40  1  0  0  0  0
  9 10  1  0  0  0  0
  9 34  1  0  0  0  0
 10 11  1  0  0  0  0
 10 41  1  0  0  0  0
 11 12  2  0  0  0  0
 11 13  1  0  0  0  0
 13 14  1  0  0  0  0
 13 42  1  0  0  0  0
 14 15  1  0  0  0  0
 14 33  2  0  0  0  0
 15 16  2  0  0  0  0
 15 43  1  0  0  0  0
 16 17  1  0  0  0  0
 16 44  1  0  0  0  0
 17 18  1  0  0  0  0
 17 31  2  0  0  0  0
 18 19  1  0  0  0  0
 19 20  1  0  0  0  0
 19 30  2  0  0  0  0
 20 21  2  0  0  0  0
 20 45  1  0  0  0  0
 21 22  1  0  0  0  0
 21 46  1  0  0  0  0
 22 23  2  0  0  0  0
 23 24  1  0  0  0  0
 23 30  1  0  0  0  0
 24 25  1  0  0  0  0
 24 47  1  0  0  0  0
 25 26  2  0  0  0  0
 25 27  1  0  0  0  0
 27 28  1  0  0  0  0
 27 29  1  0  0  0  0
 27 48  1  0  0  0  0
 28 29  1  0  0  0  0
 28 49  1  0  0  0  0
 28 50  1  0  0  0  0
 29 51  1  0  0  0  0
 29 52  1  0  0  0  0
 30 53  1  0  0  0  0
 31 32  1  0  0  0  0
 31 33  1  0  0  0  0
 33 54  1  0  0  0  0
 34 55  1  0  0  0  0
M  END
$$$$
