CHEMBL205544
 OpenBabel04072215363D

 47 50  0  0  0  0  0  0  0  0999 V2000
   13.0569   -1.0479   -5.2744 F   0  0  0  0  0  0  0  0  0  0  0  0
   11.8947   -0.6017   -5.8129 C   0  0  0  0  0  0  0  0  0  0  0  0
   11.8393    0.7393   -5.6422 F   0  0  0  0  0  0  0  0  0  0  0  0
   11.8512   -0.9728   -7.5389 Cl  0  0  0  0  0  0  0  0  0  0  0  0
   10.7959   -1.2356   -5.1618 O   0  0  0  0  0  0  0  0  0  0  0  0
   10.6902   -1.0978   -3.8090 C   0  0  0  0  0  0  0  0  0  0  0  0
   11.2223   -0.0635   -3.0485 C   0  0  0  0  0  0  0  0  0  0  0  0
   10.9906   -0.0083   -1.6695 C   0  0  0  0  0  0  0  0  0  0  0  0
   10.2325   -0.9774   -1.0086 C   0  0  0  0  0  0  0  0  0  0  0  0
    9.9102   -0.9194    0.3603 N   0  0  0  0  0  0  0  0  0  0  0  0
   10.1217    0.0829    1.2357 C   0  0  0  0  0  0  0  0  0  0  0  0
   10.2240    0.0064    2.5446 N   0  0  0  0  0  0  0  0  0  0  0  0
   10.4482    1.2884    2.9961 N   0  0  0  0  0  0  0  0  0  0  0  0
   10.4355    2.0751    1.9368 C   0  0  0  0  0  0  0  0  0  0  0  0
   10.6881    3.5239    1.8742 C   0  0  0  0  0  0  0  0  0  0  0  0
   11.0090    4.1208    3.1109 C   0  0  0  0  0  0  0  0  0  0  0  0
   11.2852    5.4717    3.1827 C   0  0  0  0  0  0  0  0  0  0  0  0
   11.2525    6.2786    2.1159 N   0  0  0  0  0  0  0  0  0  0  0  0
   10.9332    5.7066    0.9354 C   0  0  0  0  0  0  0  0  0  0  0  0
   10.6642    4.3457    0.7230 C   0  0  0  0  0  0  0  0  0  0  0  0
   10.2997    3.8857   -0.6810 C   0  0  0  0  0  0  0  0  0  0  0  0
   10.9928    4.6611   -1.8206 C   0  0  0  0  0  0  0  0  0  0  0  0
   10.7318    4.2438   -3.2486 C   0  0  0  0  0  0  0  0  0  0  0  0
    9.8193    3.2631   -3.6375 C   0  0  0  0  0  0  0  0  0  0  0  0
    9.6440    3.0147   -4.9935 C   0  0  0  0  0  0  0  0  0  0  0  0
   10.3014    3.6691   -5.9750 N   0  0  0  0  0  0  0  0  0  0  0  0
   11.1792    4.6133   -5.5834 C   0  0  0  0  0  0  0  0  0  0  0  0
   11.4249    4.9293   -4.2569 C   0  0  0  0  0  0  0  0  0  0  0  0
   10.1984    1.3754    0.7878 O   0  0  0  0  0  0  0  0  0  0  0  0
    9.7016   -2.0167   -1.7854 C   0  0  0  0  0  0  0  0  0  0  0  0
    9.9280   -2.0756   -3.1675 C   0  0  0  0  0  0  0  0  0  0  0  0
   11.8080    0.7414   -3.4823 H   0  0  0  0  0  0  0  0  0  0  0  0
   11.4494    0.8099   -1.1240 H   0  0  0  0  0  0  0  0  0  0  0  0
    9.7723   -1.8315    0.7807 H   0  0  0  0  0  0  0  0  0  0  0  0
   11.0466    3.5346    4.0258 H   0  0  0  0  0  0  0  0  0  0  0  0
   11.5434    5.9458    4.1245 H   0  0  0  0  0  0  0  0  0  0  0  0
   10.9002    6.4362    0.1316 H   0  0  0  0  0  0  0  0  0  0  0  0
    9.2094    3.9516   -0.7876 H   0  0  0  0  0  0  0  0  0  0  0  0
   10.5832    2.8456   -0.8189 H   0  0  0  0  0  0  0  0  0  0  0  0
   12.0778    4.6142   -1.6530 H   0  0  0  0  0  0  0  0  0  0  0  0
   10.6962    5.7146   -1.7749 H   0  0  0  0  0  0  0  0  0  0  0  0
    9.2404    2.6914   -2.9212 H   0  0  0  0  0  0  0  0  0  0  0  0
    8.9456    2.2561   -5.3369 H   0  0  0  0  0  0  0  0  0  0  0  0
   11.6951    5.1323   -6.3867 H   0  0  0  0  0  0  0  0  0  0  0  0
   12.1403    5.7100   -4.0151 H   0  0  0  0  0  0  0  0  0  0  0  0
    9.0934   -2.7923   -1.3256 H   0  0  0  0  0  0  0  0  0  0  0  0
    9.5017   -2.8947   -3.7426 H   0  0  0  0  0  0  0  0  0  0  0  0
  1  2  1  0  0  0  0
  2  3  1  0  0  0  0
  2  4  1  0  0  0  0
  2  5  1  0  0  0  0
  5  6  1  0  0  0  0
  6  7  1  0  0  0  0
  6 31  2  0  0  0  0
  7  8  2  0  0  0  0
  7 32  1  0  0  0  0
  8  9  1  0  0  0  0
  8 33  1  0  0  0  0
  9 10  1  0  0  0  0
  9 30  2  0  0  0  0
 10 11  1  0  0  0  0
 10 34  1  0  0  0  0
 11 12  2  0  0  0  0
 11 29  1  0  0  0  0
 12 13  1  0  0  0  0
 13 14  2  0  0  0  0
 14 15  1  0  0  0  0
 14 29  1  0  0  0  0
 15 16  1  0  0  0  0
 15 20  2  0  0  0  0
 16 17  2  0  0  0  0
 16 35  1  0  0  0  0
 17 18  1  0  0  0  0
 17 36  1  0  0  0  0
 18 19  2  0  0  0  0
 19 20  1  0  0  0  0
 19 37  1  0  0  0  0
 20 21  1  0  0  0  0
 21 22  1  0  0  0  0
 21 38  1  0  0  0  0
 21 39  1  0  0  0  0
 22 23  1  0  0  0  0
 22 40  1  0  0  0  0
 22 41  1  0  0  0  0
 23 24  1  0  0  0  0
 23 28  2  0  0  0  0
 24 25  2  0  0  0  0
 24 42  1  0  0  0  0
 25 26  1  0  0  0  0
 25 43  1  0  0  0  0
 26 27  2  0  0  0  0
 27 28  1  0  0  0  0
 27 44  1  0  0  0  0
 28 45  1  0  0  0  0
 30 31  1  0  0  0  0
 30 46  1  0  0  0  0
 31 47  1  0  0  0  0
M  END
$$$$
