CHEMBL3099474
 OpenBabel04072215363D

 77 80  0  0  0  0  0  0  0  0999 V2000
    0.2560   -1.6687    0.7048 C   0  0  0  0  0  0  0  0  0  0  0  0
    0.7765   -0.4059    0.3087 O   0  0  0  0  0  0  0  0  0  0  0  0
    1.4562    0.3401    1.2331 C   0  0  0  0  0  0  0  0  0  0  0  0
    1.5745   -0.0120    2.5866 C   0  0  0  0  0  0  0  0  0  0  0  0
    2.4414    0.6632    3.4848 C   0  0  0  0  0  0  0  0  0  0  0  0
    2.6677    0.1269    4.8707 C   0  0  0  0  0  0  0  0  0  0  0  0
    2.5432   -1.2700    5.0357 C   0  0  0  0  0  0  0  0  0  0  0  0
    2.7880   -1.9553    6.2245 C   0  0  0  0  0  0  0  0  0  0  0  0
    2.6619   -3.3624    6.3056 N   0  0  0  0  0  0  0  0  0  0  0  0
    2.7064   -4.2055    5.2034 C   0  0  0  0  0  0  0  0  0  0  0  0
    2.9174   -3.8467    4.0483 O   0  0  0  0  0  0  0  0  0  0  0  0
    2.4676   -5.5302    5.5342 N   0  0  0  0  0  0  0  0  0  0  0  0
    2.4816   -6.4987    4.4894 C   0  0  0  0  0  0  0  0  0  0  0  0
    3.6091   -6.5965    3.6508 C   0  0  0  0  0  0  0  0  0  0  0  0
    3.6326   -7.4819    2.5711 C   0  0  0  0  0  0  0  0  0  0  0  0
    4.6540   -7.6095    1.6602 O   0  0  0  0  0  0  0  0  0  0  0  0
    5.9622   -7.2501    2.1327 C   0  0  0  0  0  0  0  0  0  0  0  0
    6.9992   -7.3658    0.9912 C   0  0  0  0  0  0  0  0  0  0  0  0
    8.3914   -7.0971    1.4149 N   0  0  0  0  0  0  0  0  0  0  0  0
    8.6217   -5.7179    1.8752 C   0  0  0  0  0  0  0  0  0  0  0  0
    9.2361   -4.9866    0.6998 C   0  0  0  0  0  0  0  0  0  0  0  0
   10.1356   -6.0460    0.1075 C   0  0  0  0  0  0  0  0  0  0  0  0
    9.3507   -7.3378    0.3132 C   0  0  0  0  0  0  0  0  0  0  0  0
    2.5121   -8.2758    2.3358 C   0  0  0  0  0  0  0  0  0  0  0  0
    1.3895   -8.1952    3.1712 C   0  0  0  0  0  0  0  0  0  0  0  0
    1.3532   -7.3033    4.2559 C   0  0  0  0  0  0  0  0  0  0  0  0
    0.0771   -7.1192    5.0161 C   0  0  0  0  0  0  0  0  0  0  0  0
    3.1422   -1.2052    7.3415 C   0  0  0  0  0  0  0  0  0  0  0  0
    3.2902    0.1902    7.2373 C   0  0  0  0  0  0  0  0  0  0  0  0
    3.5705    0.9205    8.3690 O   0  0  0  0  0  0  0  0  0  0  0  0
    4.6802    0.4435    9.1284 C   0  0  0  0  0  0  0  0  0  0  0  0
    3.0508    0.8672    6.0171 C   0  0  0  0  0  0  0  0  0  0  0  0
    3.1113    2.2360    5.8650 O   0  0  0  0  0  0  0  0  0  0  0  0
    4.0059    2.9548    6.7105 C   0  0  0  0  0  0  0  0  0  0  0  0
    3.1628    1.7437    2.9713 C   0  0  0  0  0  0  0  0  0  0  0  0
    2.9795    2.1694    1.6473 C   0  0  0  0  0  0  0  0  0  0  0  0
    2.1052    1.4948    0.7872 C   0  0  0  0  0  0  0  0  0  0  0  0
    1.9010    2.0578   -0.5754 C   0  0  0  0  0  0  0  0  0  0  0  0
    0.5526    1.9349   -1.2460 C   0  0  0  0  0  0  0  0  0  0  0  0
    2.8173    2.6862   -1.1121 O   0  0  0  0  0  0  0  0  0  0  0  0
   -0.1891   -2.1400   -0.1793 H   0  0  0  0  0  0  0  0  0  0  0  0
   -0.5420   -1.5435    1.4440 H   0  0  0  0  0  0  0  0  0  0  0  0
    1.0420   -2.3362    1.0744 H   0  0  0  0  0  0  0  0  0  0  0  0
    1.0023   -0.8526    2.9415 H   0  0  0  0  0  0  0  0  0  0  0  0
    2.2450   -1.8491    4.1748 H   0  0  0  0  0  0  0  0  0  0  0  0
    2.7844   -3.7933    7.2110 H   0  0  0  0  0  0  0  0  0  0  0  0
    1.7658   -5.6466    6.2494 H   0  0  0  0  0  0  0  0  0  0  0  0
    4.4418   -5.9290    3.8406 H   0  0  0  0  0  0  0  0  0  0  0  0
    6.2377   -7.9282    2.9488 H   0  0  0  0  0  0  0  0  0  0  0  0
    5.9542   -6.2193    2.4884 H   0  0  0  0  0  0  0  0  0  0  0  0
    6.7036   -6.7094    0.1619 H   0  0  0  0  0  0  0  0  0  0  0  0
    6.9391   -8.3895    0.5991 H   0  0  0  0  0  0  0  0  0  0  0  0
    9.3466   -5.7584    2.6981 H   0  0  0  0  0  0  0  0  0  0  0  0
    7.7427   -5.1963    2.2580 H   0  0  0  0  0  0  0  0  0  0  0  0
    9.7892   -4.0933    1.0054 H   0  0  0  0  0  0  0  0  0  0  0  0
    8.4644   -4.6913   -0.0193 H   0  0  0  0  0  0  0  0  0  0  0  0
   11.0811   -6.0838    0.6627 H   0  0  0  0  0  0  0  0  0  0  0  0
   10.3654   -5.8517   -0.9443 H   0  0  0  0  0  0  0  0  0  0  0  0
   10.0311   -8.1545    0.5784 H   0  0  0  0  0  0  0  0  0  0  0  0
    8.8534   -7.6166   -0.6235 H   0  0  0  0  0  0  0  0  0  0  0  0
    2.5010   -8.9540    1.4863 H   0  0  0  0  0  0  0  0  0  0  0  0
    0.5235   -8.8115    2.9408 H   0  0  0  0  0  0  0  0  0  0  0  0
   -0.6979   -7.8210    4.6908 H   0  0  0  0  0  0  0  0  0  0  0  0
   -0.3144   -6.1047    4.8468 H   0  0  0  0  0  0  0  0  0  0  0  0
    0.2309   -7.2675    6.0890 H   0  0  0  0  0  0  0  0  0  0  0  0
    3.3114   -1.7014    8.2913 H   0  0  0  0  0  0  0  0  0  0  0  0
    5.1486    1.3068    9.6112 H   0  0  0  0  0  0  0  0  0  0  0  0
    5.4420   -0.0458    8.5108 H   0  0  0  0  0  0  0  0  0  0  0  0
    4.3249   -0.2301    9.9128 H   0  0  0  0  0  0  0  0  0  0  0  0
    4.2398    3.9063    6.2247 H   0  0  0  0  0  0  0  0  0  0  0  0
    4.9534    2.4253    6.8543 H   0  0  0  0  0  0  0  0  0  0  0  0
    3.5241    3.1932    7.6630 H   0  0  0  0  0  0  0  0  0  0  0  0
    3.8951    2.2684    3.5805 H   0  0  0  0  0  0  0  0  0  0  0  0
    3.5448    3.0322    1.2890 H   0  0  0  0  0  0  0  0  0  0  0  0
   -0.2052    1.4702   -0.6146 H   0  0  0  0  0  0  0  0  0  0  0  0
    0.6579    1.3571   -2.1675 H   0  0  0  0  0  0  0  0  0  0  0  0
    0.1850    2.9391   -1.4733 H   0  0  0  0  0  0  0  0  0  0  0  0
  1  2  1  0  0  0  0
  1 41  1  0  0  0  0
  1 42  1  0  0  0  0
  1 43  1  0  0  0  0
  2  3  1  0  0  0  0
  3  4  1  0  0  0  0
  3 37  2  0  0  0  0
  4  5  2  0  0  0  0
  4 44  1  0  0  0  0
  5  6  1  0  0  0  0
  5 35  1  0  0  0  0
  6  7  1  0  0  0  0
  6 32  2  0  0  0  0
  7  8  2  0  0  0  0
  7 45  1  0  0  0  0
  8  9  1  0  0  0  0
  8 28  1  0  0  0  0
  9 10  1  0  0  0  0
  9 46  1  0  0  0  0
 10 11  2  0  0  0  0
 10 12  1  0  0  0  0
 12 13  1  0  0  0  0
 12 47  1  0  0  0  0
 13 14  1  0  0  0  0
 13 26  2  0  0  0  0
 14 15  2  0  0  0  0
 14 48  1  0  0  0  0
 15 16  1  0  0  0  0
 15 24  1  0  0  0  0
 16 17  1  0  0  0  0
 17 18  1  0  0  0  0
 17 49  1  0  0  0  0
 17 50  1  0  0  0  0
 18 19  1  0  0  0  0
 18 51  1  0  0  0  0
 18 52  1  0  0  0  0
 19 20  1  0  0  0  0
 19 23  1  0  0  0  0
 20 21  1  0  0  0  0
 20 53  1  0  0  0  0
 20 54  1  0  0  0  0
 21 22  1  0  0  0  0
 21 55  1  0  0  0  0
 21 56  1  0  0  0  0
 22 23  1  0  0  0  0
 22 57  1  0  0  0  0
 22 58  1  0  0  0  0
 23 59  1  0  0  0  0
 23 60  1  0  0  0  0
 24 25  2  0  0  0  0
 24 61  1  0  0  0  0
 25 26  1  0  0  0  0
 25 62  1  0  0  0  0
 26 27  1  0  0  0  0
 27 63  1  0  0  0  0
 27 64  1  0  0  0  0
 27 65  1  0  0  0  0
 28 29  2  0  0  0  0
 28 66  1  0  0  0  0
 29 30  1  0  0  0  0
 29 32  1  0  0  0  0
 30 31  1  0  0  0  0
 31 67  1  0  0  0  0
 31 68  1  0  0  0  0
 31 69  1  0  0  0  0
 32 33  1  0  0  0  0
 33 34  1  0  0  0  0
 34 70  1  0  0  0  0
 34 71  1  0  0  0  0
 34 72  1  0  0  0  0
 35 36  2  0  0  0  0
 35 73  1  0  0  0  0
 36 37  1  0  0  0  0
 36 74  1  0  0  0  0
 37 38  1  0  0  0  0
 38 39  1  0  0  0  0
 38 40  2  0  0  0  0
 39 75  1  0  0  0  0
 39 76  1  0  0  0  0
 39 77  1  0  0  0  0
M  END
$$$$
