CHEMBL81026
 OpenBabel04072215383D

 39 42  0  0  0  0  0  0  0  0999 V2000
    1.7677    1.1450    0.2674 C   0  0  0  0  0  0  0  0  0  0  0  0
    2.5046   -0.0618    0.1100 O   0  0  0  0  0  0  0  0  0  0  0  0
    3.1383   -0.2299   -1.0901 C   0  0  0  0  0  0  0  0  0  0  0  0
    3.0740    0.6446   -2.1697 C   0  0  0  0  0  0  0  0  0  0  0  0
    3.7649    0.3559   -3.3485 C   0  0  0  0  0  0  0  0  0  0  0  0
    4.5632   -0.7945   -3.4791 C   0  0  0  0  0  0  0  0  0  0  0  0
    5.3329   -1.0475   -4.7171 C   0  0  0  0  0  0  0  0  0  0  0  0
    5.8624    0.0268   -5.4560 C   0  0  0  0  0  0  0  0  0  0  0  0
    6.5969   -0.1510   -6.6307 C   0  0  0  0  0  0  0  0  0  0  0  0
    6.8520   -1.4644   -7.0368 C   0  0  0  0  0  0  0  0  0  0  0  0
    6.3105   -2.5578   -6.3667 C   0  0  0  0  0  0  0  0  0  0  0  0
    5.5538   -2.3528   -5.1997 C   0  0  0  0  0  0  0  0  0  0  0  0
    6.6107   -3.7311   -7.0070 N   0  0  0  0  0  0  0  0  0  0  0  0
    7.3347   -3.3738   -8.0437 C   0  0  0  0  0  0  0  0  0  0  0  0
    7.5632   -2.0150   -8.0906 N   0  0  0  0  0  0  0  0  0  0  0  0
    8.4254   -1.3539   -9.0028 C   0  0  0  0  0  0  0  0  0  0  0  0
    8.5936   -1.8554  -10.2990 C   0  0  0  0  0  0  0  0  0  0  0  0
    9.4940   -1.2383  -11.1697 C   0  0  0  0  0  0  0  0  0  0  0  0
   10.2355   -0.1357  -10.7481 C   0  0  0  0  0  0  0  0  0  0  0  0
   10.0697    0.3702   -9.4609 C   0  0  0  0  0  0  0  0  0  0  0  0
    9.1610   -0.2347   -8.5887 C   0  0  0  0  0  0  0  0  0  0  0  0
    4.6140   -1.6655   -2.3794 C   0  0  0  0  0  0  0  0  0  0  0  0
    3.9031   -1.3904   -1.2045 C   0  0  0  0  0  0  0  0  0  0  0  0
    1.3172    1.1370    1.2636 H   0  0  0  0  0  0  0  0  0  0  0  0
    0.9554    1.2113   -0.4646 H   0  0  0  0  0  0  0  0  0  0  0  0
    2.4269    2.0179    0.2046 H   0  0  0  0  0  0  0  0  0  0  0  0
    2.4949    1.5610   -2.1374 H   0  0  0  0  0  0  0  0  0  0  0  0
    3.6660    1.0567   -4.1756 H   0  0  0  0  0  0  0  0  0  0  0  0
    5.7157    1.0509   -5.1163 H   0  0  0  0  0  0  0  0  0  0  0  0
    6.9442    0.7108   -7.1900 H   0  0  0  0  0  0  0  0  0  0  0  0
    5.1425   -3.2225   -4.6980 H   0  0  0  0  0  0  0  0  0  0  0  0
    7.7808   -4.0625   -8.7485 H   0  0  0  0  0  0  0  0  0  0  0  0
    8.0123   -2.6991  -10.6654 H   0  0  0  0  0  0  0  0  0  0  0  0
    9.6206   -1.6212  -12.1791 H   0  0  0  0  0  0  0  0  0  0  0  0
   10.9538    0.3280  -11.4214 H   0  0  0  0  0  0  0  0  0  0  0  0
   10.6572    1.2180   -9.1248 H   0  0  0  0  0  0  0  0  0  0  0  0
    9.1031    0.1461   -7.5728 H   0  0  0  0  0  0  0  0  0  0  0  0
    5.2185   -2.5697   -2.4140 H   0  0  0  0  0  0  0  0  0  0  0  0
    3.9574   -2.0847   -0.3699 H   0  0  0  0  0  0  0  0  0  0  0  0
  1  2  1  0  0  0  0
  1 24  1  0  0  0  0
  1 25  1  0  0  0  0
  1 26  1  0  0  0  0
  2  3  1  0  0  0  0
  3  4  1  0  0  0  0
  3 23  2  0  0  0  0
  4  5  2  0  0  0  0
  4 27  1  0  0  0  0
  5  6  1  0  0  0  0
  5 28  1  0  0  0  0
  6  7  1  0  0  0  0
  6 22  2  0  0  0  0
  7  8  1  0  0  0  0
  7 12  2  0  0  0  0
  8  9  2  0  0  0  0
  8 29  1  0  0  0  0
  9 10  1  0  0  0  0
  9 30  1  0  0  0  0
 10 11  2  0  0  0  0
 10 15  1  0  0  0  0
 11 12  1  0  0  0  0
 11 13  1  0  0  0  0
 12 31  1  0  0  0  0
 13 14  2  0  0  0  0
 14 15  1  0  0  0  0
 14 32  1  0  0  0  0
 15 16  1  0  0  0  0
 16 17  1  0  0  0  0
 16 21  2  0  0  0  0
 17 18  2  0  0  0  0
 17 33  1  0  0  0  0
 18 19  1  0  0  0  0
 18 34  1  0  0  0  0
 19 20  2  0  0  0  0
 19 35  1  0  0  0  0
 20 21  1  0  0  0  0
 20 36  1  0  0  0  0
 21 37  1  0  0  0  0
 22 23  1  0  0  0  0
 22 38  1  0  0  0  0
 23 39  1  0  0  0  0
M  END
$$$$
