CHEMBL1762523
 OpenBabel04072215363D

 66 70  0  0  0  0  0  0  0  0999 V2000
    2.0473   -5.4501    2.4218 C   0  0  0  0  0  0  0  0  0  0  0  0
    0.6854   -5.6298    1.8161 C   0  0  0  0  0  0  0  0  0  0  0  0
    0.0198   -6.8515    1.9066 C   0  0  0  0  0  0  0  0  0  0  0  0
   -1.2436   -6.9953    1.3410 C   0  0  0  0  0  0  0  0  0  0  0  0
   -1.8451   -5.9196    0.6784 C   0  0  0  0  0  0  0  0  0  0  0  0
   -1.2071   -4.6736    0.5546 C   0  0  0  0  0  0  0  0  0  0  0  0
   -1.8233   -3.6292   -0.1734 N   0  0  0  0  0  0  0  0  0  0  0  0
   -0.9826   -2.5981   -0.7872 C   0  0  0  0  0  0  0  0  0  0  0  0
   -3.2190   -3.3472   -0.2190 C   0  0  0  0  0  0  0  0  0  0  0  0
   -3.7742   -2.8004   -1.3680 C   0  0  0  0  0  0  0  0  0  0  0  0
   -5.1139   -2.5276   -1.3537 C   0  0  0  0  0  0  0  0  0  0  0  0
   -5.8922   -2.7793   -0.3015 N   0  0  0  0  0  0  0  0  0  0  0  0
   -5.3080   -3.3120    0.7834 C   0  0  0  0  0  0  0  0  0  0  0  0
   -6.0931   -3.5213    1.9160 N   0  0  0  0  0  0  0  0  0  0  0  0
   -7.4682   -3.7831    1.9861 C   0  0  0  0  0  0  0  0  0  0  0  0
   -8.1594   -4.4029    0.9317 C   0  0  0  0  0  0  0  0  0  0  0  0
   -9.5381   -4.6198    0.9637 C   0  0  0  0  0  0  0  0  0  0  0  0
  -10.2084   -5.2942   -0.0376 N   0  0  0  0  0  0  0  0  0  0  0  0
   -9.5914   -6.3952   -0.7860 C   0  0  0  0  0  0  0  0  0  0  0  0
   -9.4233   -6.0209   -2.2628 C   0  0  0  0  0  0  0  0  0  0  0  0
  -10.6685   -5.5916   -2.8407 O   0  0  0  0  0  0  0  0  0  0  0  0
  -11.1608   -4.4331   -2.1441 C   0  0  0  0  0  0  0  0  0  0  0  0
  -11.4143   -4.7211   -0.6532 C   0  0  0  0  0  0  0  0  0  0  0  0
  -10.2276   -4.1560    2.0937 C   0  0  0  0  0  0  0  0  0  0  0  0
   -9.5949   -3.5466    3.1923 C   0  0  0  0  0  0  0  0  0  0  0  0
  -10.3227   -3.1580    4.2994 N   0  0  0  0  0  0  0  0  0  0  0  0
   -9.9468   -2.0377    5.1704 C   0  0  0  0  0  0  0  0  0  0  0  0
   -9.7827   -2.5320    6.6142 C   0  0  0  0  0  0  0  0  0  0  0  0
  -10.9683   -3.2015    7.0793 O   0  0  0  0  0  0  0  0  0  0  0  0
  -11.2531   -4.3391    6.2476 C   0  0  0  0  0  0  0  0  0  0  0  0
  -11.4752   -3.9370    4.7795 C   0  0  0  0  0  0  0  0  0  0  0  0
   -8.2050   -3.3689    3.1056 C   0  0  0  0  0  0  0  0  0  0  0  0
   -3.9975   -3.5981    0.8603 N   0  0  0  0  0  0  0  0  0  0  0  0
    0.0641   -4.5558    1.1491 C   0  0  0  0  0  0  0  0  0  0  0  0
    2.4018   -6.3723    2.8952 H   0  0  0  0  0  0  0  0  0  0  0  0
    2.0210   -4.6688    3.1877 H   0  0  0  0  0  0  0  0  0  0  0  0
    2.7718   -5.1737    1.6487 H   0  0  0  0  0  0  0  0  0  0  0  0
    0.4755   -7.6955    2.4197 H   0  0  0  0  0  0  0  0  0  0  0  0
   -1.7622   -7.9477    1.4079 H   0  0  0  0  0  0  0  0  0  0  0  0
   -2.8239   -6.0751    0.2301 H   0  0  0  0  0  0  0  0  0  0  0  0
    0.0920   -2.7611   -0.6769 H   0  0  0  0  0  0  0  0  0  0  0  0
   -1.2126   -1.6120   -0.3659 H   0  0  0  0  0  0  0  0  0  0  0  0
   -1.1368   -2.5612   -1.8719 H   0  0  0  0  0  0  0  0  0  0  0  0
   -3.2070   -2.6070   -2.2652 H   0  0  0  0  0  0  0  0  0  0  0  0
   -5.6139   -2.0789   -2.2066 H   0  0  0  0  0  0  0  0  0  0  0  0
   -5.5343   -3.7366    2.7288 H   0  0  0  0  0  0  0  0  0  0  0  0
   -7.5973   -4.7175    0.0560 H   0  0  0  0  0  0  0  0  0  0  0  0
  -10.2679   -7.2554   -0.7122 H   0  0  0  0  0  0  0  0  0  0  0  0
   -8.6345   -6.7157   -0.3596 H   0  0  0  0  0  0  0  0  0  0  0  0
   -9.0820   -6.8949   -2.8265 H   0  0  0  0  0  0  0  0  0  0  0  0
   -8.6781   -5.2273   -2.3908 H   0  0  0  0  0  0  0  0  0  0  0  0
  -12.0963   -4.1324   -2.6266 H   0  0  0  0  0  0  0  0  0  0  0  0
  -10.4424   -3.6144   -2.2702 H   0  0  0  0  0  0  0  0  0  0  0  0
  -12.2227   -5.4554   -0.5583 H   0  0  0  0  0  0  0  0  0  0  0  0
  -11.7436   -3.7973   -0.1645 H   0  0  0  0  0  0  0  0  0  0  0  0
  -11.3051   -4.2926    2.1171 H   0  0  0  0  0  0  0  0  0  0  0  0
  -10.7615   -1.3039    5.1344 H   0  0  0  0  0  0  0  0  0  0  0  0
   -9.0426   -1.5156    4.8435 H   0  0  0  0  0  0  0  0  0  0  0  0
   -9.6035   -1.6815    7.2790 H   0  0  0  0  0  0  0  0  0  0  0  0
   -8.9297   -3.2150    6.7036 H   0  0  0  0  0  0  0  0  0  0  0  0
  -12.1547   -4.8205    6.6396 H   0  0  0  0  0  0  0  0  0  0  0  0
  -10.4280   -5.0565    6.3348 H   0  0  0  0  0  0  0  0  0  0  0  0
  -12.3722   -3.3120    4.6977 H   0  0  0  0  0  0  0  0  0  0  0  0
  -11.6483   -4.8521    4.2026 H   0  0  0  0  0  0  0  0  0  0  0  0
   -7.6654   -2.9023    3.9225 H   0  0  0  0  0  0  0  0  0  0  0  0
    0.5951   -3.6092    1.1302 H   0  0  0  0  0  0  0  0  0  0  0  0
  1  2  1  0  0  0  0
  1 35  1  0  0  0  0
  1 36  1  0  0  0  0
  1 37  1  0  0  0  0
  2  3  1  0  0  0  0
  2 34  2  0  0  0  0
  3  4  2  0  0  0  0
  3 38  1  0  0  0  0
  4  5  1  0  0  0  0
  4 39  1  0  0  0  0
  5  6  2  0  0  0  0
  5 40  1  0  0  0  0
  6  7  1  0  0  0  0
  6 34  1  0  0  0  0
  7  8  1  0  0  0  0
  7  9  1  0  0  0  0
  8 41  1  0  0  0  0
  8 42  1  0  0  0  0
  8 43  1  0  0  0  0
  9 10  1  0  0  0  0
  9 33  2  0  0  0  0
 10 11  2  0  0  0  0
 10 44  1  0  0  0  0
 11 12  1  0  0  0  0
 11 45  1  0  0  0  0
 12 13  2  0  0  0  0
 13 14  1  0  0  0  0
 13 33  1  0  0  0  0
 14 15  1  0  0  0  0
 14 46  1  0  0  0  0
 15 16  1  0  0  0  0
 15 32  2  0  0  0  0
 16 17  2  0  0  0  0
 16 47  1  0  0  0  0
 17 18  1  0  0  0  0
 17 24  1  0  0  0  0
 18 19  1  0  0  0  0
 18 23  1  0  0  0  0
 19 20  1  0  0  0  0
 19 48  1  0  0  0  0
 19 49  1  0  0  0  0
 20 21  1  0  0  0  0
 20 50  1  0  0  0  0
 20 51  1  0  0  0  0
 21 22  1  0  0  0  0
 22 23  1  0  0  0  0
 22 52  1  0  0  0  0
 22 53  1  0  0  0  0
 23 54  1  0  0  0  0
 23 55  1  0  0  0  0
 24 25  2  0  0  0  0
 24 56  1  0  0  0  0
 25 26  1  0  0  0  0
 25 32  1  0  0  0  0
 26 27  1  0  0  0  0
 26 31  1  0  0  0  0
 27 28  1  0  0  0  0
 27 57  1  0  0  0  0
 27 58  1  0  0  0  0
 28 29  1  0  0  0  0
 28 59  1  0  0  0  0
 28 60  1  0  0  0  0
 29 30  1  0  0  0  0
 30 31  1  0  0  0  0
 30 61  1  0  0  0  0
 30 62  1  0  0  0  0
 31 63  1  0  0  0  0
 31 64  1  0  0  0  0
 32 65  1  0  0  0  0
 34 66  1  0  0  0  0
M  END
$$$$
