CHEMBL3907063
 OpenBabel04072215373D

 70 74  0  0  0  0  0  0  0  0999 V2000
    1.9151    1.0702   -3.1493 C   0  0  0  0  0  0  0  0  0  0  0  0
    3.0337    0.8444   -2.2686 N   0  0  0  0  0  0  0  0  0  0  0  0
    3.9546    1.8498   -2.0448 C   0  0  0  0  0  0  0  0  0  0  0  0
    3.8262    2.9782   -2.5053 O   0  0  0  0  0  0  0  0  0  0  0  0
    5.1521    1.5212   -1.2149 C   0  0  0  0  0  0  0  0  0  0  0  0
    5.6028    0.2060   -1.0674 C   0  0  0  0  0  0  0  0  0  0  0  0
    6.7631   -0.0479   -0.3401 C   0  0  0  0  0  0  0  0  0  0  0  0
    7.2825   -1.2957   -0.1065 O   0  0  0  0  0  0  0  0  0  0  0  0
    6.6472   -2.3992   -0.7508 C   0  0  0  0  0  0  0  0  0  0  0  0
    7.4851    1.0282    0.2124 C   0  0  0  0  0  0  0  0  0  0  0  0
    7.0691    2.3673    0.0665 C   0  0  0  0  0  0  0  0  0  0  0  0
    7.7874    3.4109    0.6984 N   0  0  0  0  0  0  0  0  0  0  0  0
    7.0188    4.5798    1.2438 C   0  0  0  0  0  0  0  0  0  0  0  0
    5.8367    4.3274    2.2015 C   0  0  0  0  0  0  0  0  0  0  0  0
    6.1485    3.7886    3.6144 C   0  0  0  0  0  0  0  0  0  0  0  0
    4.9750    3.8553    4.5293 N   0  0  0  0  0  0  0  0  0  0  0  0
    5.2676    3.3388    5.8805 C   0  0  0  0  0  0  0  0  0  0  0  0
    4.9692    1.8543    5.7918 C   0  0  0  0  0  0  0  0  0  0  0  0
    3.7203    1.8223    4.9347 C   0  0  0  0  0  0  0  0  0  0  0  0
    3.7987    3.0875    4.0868 C   0  0  0  0  0  0  0  0  0  0  0  0
    9.1071    3.9048    0.3210 C   0  0  0  0  0  0  0  0  0  0  0  0
    9.8661    4.4043    1.3793 C   0  0  0  0  0  0  0  0  0  0  0  0
   10.8128    5.3726    1.1401 C   0  0  0  0  0  0  0  0  0  0  0  0
   11.1911    5.7293   -0.1302 C   0  0  0  0  0  0  0  0  0  0  0  0
   11.9893    6.7982   -0.1779 N   0  0  0  0  0  0  0  0  0  0  0  0
   12.5675    7.0626   -1.3535 C   0  0  0  0  0  0  0  0  0  0  0  0
   12.4177    6.2342   -2.4422 C   0  0  0  0  0  0  0  0  0  0  0  0
   13.4338    6.3861   -3.4846 C   0  0  0  0  0  0  0  0  0  0  0  0
   14.6361    5.6538   -3.6847 C   0  0  0  0  0  0  0  0  0  0  0  0
   15.4579    6.2262   -4.5749 N   0  0  0  0  0  0  0  0  0  0  0  0
   14.7916    7.3321   -4.9457 N   0  0  0  0  0  0  0  0  0  0  0  0
   15.2003    8.0779   -6.1135 C   0  0  0  0  0  0  0  0  0  0  0  0
   13.6714    7.5567   -4.1910 C   0  0  0  0  0  0  0  0  0  0  0  0
   11.4847    5.2116   -2.4383 N   0  0  0  0  0  0  0  0  0  0  0  0
   10.7760    4.9788   -1.2535 C   0  0  0  0  0  0  0  0  0  0  0  0
    9.6430    4.0966   -0.9944 C   0  0  0  0  0  0  0  0  0  0  0  0
    5.8800    2.5838   -0.6442 C   0  0  0  0  0  0  0  0  0  0  0  0
    1.3184    0.1557   -3.2029 H   0  0  0  0  0  0  0  0  0  0  0  0
    2.2905    1.3251   -4.1441 H   0  0  0  0  0  0  0  0  0  0  0  0
    1.3066    1.8950   -2.7694 H   0  0  0  0  0  0  0  0  0  0  0  0
    3.0573   -0.0062   -1.7273 H   0  0  0  0  0  0  0  0  0  0  0  0
    5.0651   -0.6015   -1.5482 H   0  0  0  0  0  0  0  0  0  0  0  0
    7.2125   -3.3062   -0.5138 H   0  0  0  0  0  0  0  0  0  0  0  0
    6.6555   -2.2814   -1.8401 H   0  0  0  0  0  0  0  0  0  0  0  0
    5.6255   -2.5413   -0.3805 H   0  0  0  0  0  0  0  0  0  0  0  0
    8.3757    0.8086    0.7990 H   0  0  0  0  0  0  0  0  0  0  0  0
    6.6524    5.1641    0.3899 H   0  0  0  0  0  0  0  0  0  0  0  0
    7.6723    5.2706    1.7916 H   0  0  0  0  0  0  0  0  0  0  0  0
    5.0936    3.7037    1.7091 H   0  0  0  0  0  0  0  0  0  0  0  0
    5.3631    5.3116    2.3455 H   0  0  0  0  0  0  0  0  0  0  0  0
    6.9289    4.4225    4.0587 H   0  0  0  0  0  0  0  0  0  0  0  0
    6.5482    2.7708    3.5588 H   0  0  0  0  0  0  0  0  0  0  0  0
    4.5746    3.8022    6.5966 H   0  0  0  0  0  0  0  0  0  0  0  0
    6.2815    3.5523    6.2334 H   0  0  0  0  0  0  0  0  0  0  0  0
    4.8110    1.3891    6.7696 H   0  0  0  0  0  0  0  0  0  0  0  0
    5.7855    1.3218    5.2909 H   0  0  0  0  0  0  0  0  0  0  0  0
    2.8262    1.8517    5.5692 H   0  0  0  0  0  0  0  0  0  0  0  0
    3.6707    0.9167    4.3229 H   0  0  0  0  0  0  0  0  0  0  0  0
    2.8996    3.6932    4.2571 H   0  0  0  0  0  0  0  0  0  0  0  0
    3.7976    2.8320    3.0242 H   0  0  0  0  0  0  0  0  0  0  0  0
    9.5894    4.1736    2.4031 H   0  0  0  0  0  0  0  0  0  0  0  0
   11.2578    5.8945    1.9817 H   0  0  0  0  0  0  0  0  0  0  0  0
   13.2209    7.9308   -1.3639 H   0  0  0  0  0  0  0  0  0  0  0  0
   14.9695    4.7506   -3.1893 H   0  0  0  0  0  0  0  0  0  0  0  0
   16.0563    7.5893   -6.5874 H   0  0  0  0  0  0  0  0  0  0  0  0
   15.4572    9.0999   -5.8258 H   0  0  0  0  0  0  0  0  0  0  0  0
   14.3547    8.0785   -6.8071 H   0  0  0  0  0  0  0  0  0  0  0  0
   13.1419    8.4974   -4.2484 H   0  0  0  0  0  0  0  0  0  0  0  0
    9.1629    3.6240   -1.8524 H   0  0  0  0  0  0  0  0  0  0  0  0
    5.5000    3.5931   -0.7783 H   0  0  0  0  0  0  0  0  0  0  0  0
  1  2  1  0  0  0  0
  1 38  1  0  0  0  0
  1 39  1  0  0  0  0
  1 40  1  0  0  0  0
  2  3  1  0  0  0  0
  2 41  1  0  0  0  0
  3  4  2  0  0  0  0
  3  5  1  0  0  0  0
  5  6  1  0  0  0  0
  5 37  2  0  0  0  0
  6  7  2  0  0  0  0
  6 42  1  0  0  0  0
  7  8  1  0  0  0  0
  7 10  1  0  0  0  0
  8  9  1  0  0  0  0
  9 43  1  0  0  0  0
  9 44  1  0  0  0  0
  9 45  1  0  0  0  0
 10 11  2  0  0  0  0
 10 46  1  0  0  0  0
 11 12  1  0  0  0  0
 11 37  1  0  0  0  0
 12 13  1  0  0  0  0
 12 21  1  0  0  0  0
 13 14  1  0  0  0  0
 13 47  1  0  0  0  0
 13 48  1  0  0  0  0
 14 15  1  0  0  0  0
 14 49  1  0  0  0  0
 14 50  1  0  0  0  0
 15 16  1  0  0  0  0
 15 51  1  0  0  0  0
 15 52  1  0  0  0  0
 16 17  1  0  0  0  0
 16 20  1  0  0  0  0
 17 18  1  0  0  0  0
 17 53  1  0  0  0  0
 17 54  1  0  0  0  0
 18 19  1  0  0  0  0
 18 55  1  0  0  0  0
 18 56  1  0  0  0  0
 19 20  1  0  0  0  0
 19 57  1  0  0  0  0
 19 58  1  0  0  0  0
 20 59  1  0  0  0  0
 20 60  1  0  0  0  0
 21 22  1  0  0  0  0
 21 36  2  0  0  0  0
 22 23  2  0  0  0  0
 22 61  1  0  0  0  0
 23 24  1  0  0  0  0
 23 62  1  0  0  0  0
 24 25  1  0  0  0  0
 24 35  2  0  0  0  0
 25 26  2  0  0  0  0
 26 27  1  0  0  0  0
 26 63  1  0  0  0  0
 27 28  1  0  0  0  0
 27 34  2  0  0  0  0
 28 29  1  0  0  0  0
 28 33  2  0  0  0  0
 29 30  2  0  0  0  0
 29 64  1  0  0  0  0
 30 31  1  0  0  0  0
 31 32  1  0  0  0  0
 31 33  1  0  0  0  0
 32 65  1  0  0  0  0
 32 66  1  0  0  0  0
 32 67  1  0  0  0  0
 33 68  1  0  0  0  0
 34 35  1  0  0  0  0
 35 36  1  0  0  0  0
 36 69  1  0  0  0  0
 37 70  1  0  0  0  0
M  END
$$$$
