CHEMBL3690530
 OpenBabel04072215373D

 50 53  0  0  0  0  0  0  0  0999 V2000
    1.1357    0.7708    2.1257 N   0  0  0  0  0  0  0  0  0  0  0  0
    0.3920    0.4347    1.0049 C   0  0  0  0  0  0  0  0  0  0  0  0
   -0.1498   -0.7944    1.0480 N   0  0  0  0  0  0  0  0  0  0  0  0
   -0.9688   -1.1573    0.0443 C   0  0  0  0  0  0  0  0  0  0  0  0
   -1.6765   -2.4679    0.1275 C   0  0  0  0  0  0  0  0  0  0  0  0
   -2.6617   -2.8767   -0.8855 C   0  0  0  0  0  0  0  0  0  0  0  0
   -3.3257   -4.0366   -0.7610 C   0  0  0  0  0  0  0  0  0  0  0  0
   -3.0519   -4.8879    0.3113 N   0  0  0  0  0  0  0  0  0  0  0  0
   -3.5259   -6.1657    0.6216 C   0  0  0  0  0  0  0  0  0  0  0  0
   -4.3782   -7.0197   -0.2293 C   0  0  0  0  0  0  0  0  0  0  0  0
   -4.2288   -6.9775   -1.6215 C   0  0  0  0  0  0  0  0  0  0  0  0
   -5.0406   -7.7367   -2.4534 C   0  0  0  0  0  0  0  0  0  0  0  0
   -5.9615   -8.6197   -1.9046 C   0  0  0  0  0  0  0  0  0  0  0  0
   -6.0792   -8.7713   -0.5215 C   0  0  0  0  0  0  0  0  0  0  0  0
   -6.9431   -9.7391    0.0593 N   0  0  0  0  0  0  0  0  0  0  0  0
   -7.6806  -10.6825   -0.6296 C   0  0  0  0  0  0  0  0  0  0  0  0
   -7.7167  -10.8556   -1.8414 O   0  0  0  0  0  0  0  0  0  0  0  0
   -8.4735  -11.4494    0.1959 N   0  0  0  0  0  0  0  0  0  0  0  0
   -9.3118  -12.4856   -0.4285 C   0  0  0  0  0  0  0  0  0  0  0  0
   -8.5958  -13.7776   -0.8538 C   0  0  0  0  0  0  0  0  0  0  0  0
   -7.3289  -13.8359   -0.3828 F   0  0  0  0  0  0  0  0  0  0  0  0
   -9.2505  -14.8525   -0.3441 F   0  0  0  0  0  0  0  0  0  0  0  0
   -8.5578  -13.9331   -2.1930 F   0  0  0  0  0  0  0  0  0  0  0  0
   -5.3025   -7.9397    0.3122 C   0  0  0  0  0  0  0  0  0  0  0  0
   -2.9525   -6.4363    1.8545 C   0  0  0  0  0  0  0  0  0  0  0  0
   -2.1104   -5.4359    2.2676 N   0  0  0  0  0  0  0  0  0  0  0  0
   -2.1535   -4.5317    1.3162 C   0  0  0  0  0  0  0  0  0  0  0  0
   -1.4583   -3.2895    1.1842 C   0  0  0  0  0  0  0  0  0  0  0  0
   -1.2509   -0.3739   -1.0109 N   0  0  0  0  0  0  0  0  0  0  0  0
   -0.6901    0.8486   -1.0134 C   0  0  0  0  0  0  0  0  0  0  0  0
    0.1382    1.3196   -0.0165 C   0  0  0  0  0  0  0  0  0  0  0  0
    0.6722    2.7016   -0.1081 C   0  0  0  0  0  0  0  0  0  0  0  0
    1.5463    3.0565    0.8741 F   0  0  0  0  0  0  0  0  0  0  0  0
    1.3502    2.9048   -1.2754 F   0  0  0  0  0  0  0  0  0  0  0  0
   -0.3115    3.6442   -0.0946 F   0  0  0  0  0  0  0  0  0  0  0  0
    1.2490   -0.0538    2.7112 H   0  0  0  0  0  0  0  0  0  0  0  0
    2.0145    1.2437    1.9410 H   0  0  0  0  0  0  0  0  0  0  0  0
   -2.8514   -2.2142   -1.7254 H   0  0  0  0  0  0  0  0  0  0  0  0
   -4.0792   -4.3323   -1.4776 H   0  0  0  0  0  0  0  0  0  0  0  0
   -3.4678   -6.3633   -2.0923 H   0  0  0  0  0  0  0  0  0  0  0  0
   -4.9447   -7.6600   -3.5332 H   0  0  0  0  0  0  0  0  0  0  0  0
   -6.5634   -9.1883   -2.6037 H   0  0  0  0  0  0  0  0  0  0  0  0
   -7.0018   -9.7531    1.0664 H   0  0  0  0  0  0  0  0  0  0  0  0
   -8.1119  -11.6479    1.1176 H   0  0  0  0  0  0  0  0  0  0  0  0
   -9.8034  -12.0492   -1.3071 H   0  0  0  0  0  0  0  0  0  0  0  0
  -10.0989  -12.7197    0.2943 H   0  0  0  0  0  0  0  0  0  0  0  0
   -5.4067   -8.0179    1.3932 H   0  0  0  0  0  0  0  0  0  0  0  0
   -3.0702   -7.3304    2.4517 H   0  0  0  0  0  0  0  0  0  0  0  0
   -0.7590   -3.0368    1.9746 H   0  0  0  0  0  0  0  0  0  0  0  0
   -0.9519    1.4671   -1.8703 H   0  0  0  0  0  0  0  0  0  0  0  0
  1  2  1  0  0  0  0
  1 36  1  0  0  0  0
  1 37  1  0  0  0  0
  2  3  1  0  0  0  0
  2 31  2  0  0  0  0
  3  4  2  0  0  0  0
  4  5  1  0  0  0  0
  4 29  1  0  0  0  0
  5  6  1  0  0  0  0
  5 28  2  0  0  0  0
  6  7  2  0  0  0  0
  6 38  1  0  0  0  0
  7  8  1  0  0  0  0
  7 39  1  0  0  0  0
  8  9  1  0  0  0  0
  8 27  1  0  0  0  0
  9 10  1  0  0  0  0
  9 25  2  0  0  0  0
 10 11  1  0  0  0  0
 10 24  2  0  0  0  0
 11 12  2  0  0  0  0
 11 40  1  0  0  0  0
 12 13  1  0  0  0  0
 12 41  1  0  0  0  0
 13 14  2  0  0  0  0
 13 42  1  0  0  0  0
 14 15  1  0  0  0  0
 14 24  1  0  0  0  0
 15 16  1  0  0  0  0
 15 43  1  0  0  0  0
 16 17  2  0  0  0  0
 16 18  1  0  0  0  0
 18 19  1  0  0  0  0
 18 44  1  0  0  0  0
 19 20  1  0  0  0  0
 19 45  1  0  0  0  0
 19 46  1  0  0  0  0
 20 21  1  0  0  0  0
 20 22  1  0  0  0  0
 20 23  1  0  0  0  0
 24 47  1  0  0  0  0
 25 26  1  0  0  0  0
 25 48  1  0  0  0  0
 26 27  2  0  0  0  0
 27 28  1  0  0  0  0
 28 49  1  0  0  0  0
 29 30  2  0  0  0  0
 30 31  1  0  0  0  0
 30 50  1  0  0  0  0
 31 32  1  0  0  0  0
 32 33  1  0  0  0  0
 32 34  1  0  0  0  0
 32 35  1  0  0  0  0
M  END
$$$$
