CHEMBL3889544
 OpenBabel04072215373D

 55 58  0  0  0  0  0  0  0  0999 V2000
    2.6175    0.2584    0.0810 C   0  0  0  0  0  0  0  0  0  0  0  0
    1.1258    0.0778    0.1216 C   0  0  0  0  0  0  0  0  0  0  0  0
    0.3653    1.2638    0.1979 C   0  0  0  0  0  0  0  0  0  0  0  0
   -1.0326    1.2568    0.1467 C   0  0  0  0  0  0  0  0  0  0  0  0
   -1.7978    2.4007    0.2363 O   0  0  0  0  0  0  0  0  0  0  0  0
   -1.3406    3.5471   -0.4141 C   0  0  0  0  0  0  0  0  0  0  0  0
   -1.7681    4.7678    0.0715 C   0  0  0  0  0  0  0  0  0  0  0  0
   -1.3218    5.8733   -0.6265 C   0  0  0  0  0  0  0  0  0  0  0  0
   -1.7615    7.1538   -0.2394 N   0  0  0  0  0  0  0  0  0  0  0  0
   -1.4898    8.3160   -0.9539 C   0  0  0  0  0  0  0  0  0  0  0  0
   -0.8548    8.3988   -1.9978 O   0  0  0  0  0  0  0  0  0  0  0  0
   -2.0326    9.5537   -0.3389 C   0  0  0  0  0  0  0  0  0  0  0  0
   -1.8885   10.8917   -1.0400 C   0  0  0  0  0  0  0  0  0  0  0  0
   -1.0570   10.5919    0.1701 C   0  0  0  0  0  0  0  0  0  0  0  0
   -0.4872    5.7655   -1.6636 N   0  0  0  0  0  0  0  0  0  0  0  0
   -0.1386    4.5401   -2.0527 C   0  0  0  0  0  0  0  0  0  0  0  0
   -0.5465    3.4053   -1.4896 N   0  0  0  0  0  0  0  0  0  0  0  0
   -1.6893    0.0414    0.0743 C   0  0  0  0  0  0  0  0  0  0  0  0
   -0.9440   -1.1521    0.0351 C   0  0  0  0  0  0  0  0  0  0  0  0
    0.4622   -1.1676    0.0785 C   0  0  0  0  0  0  0  0  0  0  0  0
    1.1873   -2.3989    0.1007 N   0  0  0  0  0  0  0  0  0  0  0  0
    0.6302   -3.6443    0.3886 C   0  0  0  0  0  0  0  0  0  0  0  0
   -0.5479   -3.8575    0.6362 O   0  0  0  0  0  0  0  0  0  0  0  0
    1.5820   -4.6651    0.4553 N   0  0  0  0  0  0  0  0  0  0  0  0
    1.1772   -5.9953    0.7839 C   0  0  0  0  0  0  0  0  0  0  0  0
    0.0776   -6.6279    0.1718 C   0  0  0  0  0  0  0  0  0  0  0  0
   -0.3210   -7.9193    0.5551 C   0  0  0  0  0  0  0  0  0  0  0  0
   -1.4031   -8.4020   -0.1181 O   0  0  0  0  0  0  0  0  0  0  0  0
   -2.2336   -9.3975    0.4677 C   0  0  0  0  0  0  0  0  0  0  0  0
   -2.0054   -9.6112    1.7803 F   0  0  0  0  0  0  0  0  0  0  0  0
   -3.5234   -9.0138    0.3341 F   0  0  0  0  0  0  0  0  0  0  0  0
   -2.0736  -10.5635   -0.1955 F   0  0  0  0  0  0  0  0  0  0  0  0
    0.4120   -8.5999    1.5266 C   0  0  0  0  0  0  0  0  0  0  0  0
    1.4945   -7.9742    2.1538 C   0  0  0  0  0  0  0  0  0  0  0  0
    1.8777   -6.6923    1.7705 C   0  0  0  0  0  0  0  0  0  0  0  0
    2.9025   -6.0980    2.4015 F   0  0  0  0  0  0  0  0  0  0  0  0
    2.8915    1.2976    0.3072 H   0  0  0  0  0  0  0  0  0  0  0  0
    2.9991    0.0418   -0.9231 H   0  0  0  0  0  0  0  0  0  0  0  0
    3.1190   -0.3660    0.8235 H   0  0  0  0  0  0  0  0  0  0  0  0
    0.8779    2.2189    0.2768 H   0  0  0  0  0  0  0  0  0  0  0  0
   -2.4231    4.8304    0.9266 H   0  0  0  0  0  0  0  0  0  0  0  0
   -2.3429    7.2331    0.5819 H   0  0  0  0  0  0  0  0  0  0  0  0
   -2.9579    9.4273    0.2150 H   0  0  0  0  0  0  0  0  0  0  0  0
   -2.6832   11.6224   -0.9381 H   0  0  0  0  0  0  0  0  0  0  0  0
   -1.3896   10.9229   -2.0041 H   0  0  0  0  0  0  0  0  0  0  0  0
   -1.2914   11.1081    1.0920 H   0  0  0  0  0  0  0  0  0  0  0  0
    0.0042   10.4236    0.0089 H   0  0  0  0  0  0  0  0  0  0  0  0
    0.5449    4.4666   -2.8928 H   0  0  0  0  0  0  0  0  0  0  0  0
   -2.7703   -0.0139    0.0389 H   0  0  0  0  0  0  0  0  0  0  0  0
   -1.5198   -2.0683   -0.0543 H   0  0  0  0  0  0  0  0  0  0  0  0
    2.1853   -2.3478   -0.0292 H   0  0  0  0  0  0  0  0  0  0  0  0
    2.4735   -4.3892    0.8483 H   0  0  0  0  0  0  0  0  0  0  0  0
   -0.4774   -6.1071   -0.6027 H   0  0  0  0  0  0  0  0  0  0  0  0
    0.1741   -9.6173    1.8238 H   0  0  0  0  0  0  0  0  0  0  0  0
    2.0344   -8.4801    2.9491 H   0  0  0  0  0  0  0  0  0  0  0  0
  1  2  1  0  0  0  0
  1 37  1  0  0  0  0
  1 38  1  0  0  0  0
  1 39  1  0  0  0  0
  2  3  1  0  0  0  0
  2 20  2  0  0  0  0
  3  4  2  0  0  0  0
  3 40  1  0  0  0  0
  4  5  1  0  0  0  0
  4 18  1  0  0  0  0
  5  6  1  0  0  0  0
  6  7  1  0  0  0  0
  6 17  2  0  0  0  0
  7  8  2  0  0  0  0
  7 41  1  0  0  0  0
  8  9  1  0  0  0  0
  8 15  1  0  0  0  0
  9 10  1  0  0  0  0
  9 42  1  0  0  0  0
 10 11  2  0  0  0  0
 10 12  1  0  0  0  0
 12 13  1  0  0  0  0
 12 14  1  0  0  0  0
 12 43  1  0  0  0  0
 13 14  1  0  0  0  0
 13 44  1  0  0  0  0
 13 45  1  0  0  0  0
 14 46  1  0  0  0  0
 14 47  1  0  0  0  0
 15 16  2  0  0  0  0
 16 17  1  0  0  0  0
 16 48  1  0  0  0  0
 18 19  2  0  0  0  0
 18 49  1  0  0  0  0
 19 20  1  0  0  0  0
 19 50  1  0  0  0  0
 20 21  1  0  0  0  0
 21 22  1  0  0  0  0
 21 51  1  0  0  0  0
 22 23  2  0  0  0  0
 22 24  1  0  0  0  0
 24 25  1  0  0  0  0
 24 52  1  0  0  0  0
 25 26  1  0  0  0  0
 25 35  2  0  0  0  0
 26 27  2  0  0  0  0
 26 53  1  0  0  0  0
 27 28  1  0  0  0  0
 27 33  1  0  0  0  0
 28 29  1  0  0  0  0
 29 30  1  0  0  0  0
 29 31  1  0  0  0  0
 29 32  1  0  0  0  0
 33 34  2  0  0  0  0
 33 54  1  0  0  0  0
 34 35  1  0  0  0  0
 34 55  1  0  0  0  0
 35 36  1  0  0  0  0
M  END
$$$$
