CHEMBL3660277
 OpenBabel04072215373D

 52 55  0  0  0  0  0  0  0  0999 V2000
    2.9326    0.6308   -1.8152 C   0  0  0  0  0  0  0  0  0  0  0  0
    1.4923    0.4195   -1.4405 C   0  0  0  0  0  0  0  0  0  0  0  0
    0.9574   -0.8702   -1.5095 C   0  0  0  0  0  0  0  0  0  0  0  0
   -0.3645   -1.0918   -1.1527 C   0  0  0  0  0  0  0  0  0  0  0  0
   -1.1645   -0.0345   -0.7333 C   0  0  0  0  0  0  0  0  0  0  0  0
   -2.3793   -0.3690   -0.2840 F   0  0  0  0  0  0  0  0  0  0  0  0
   -0.6872    1.2873   -0.6942 C   0  0  0  0  0  0  0  0  0  0  0  0
   -1.4772    2.4229   -0.3306 N   0  0  0  0  0  0  0  0  0  0  0  0
   -2.8692    2.4579   -0.3508 C   0  0  0  0  0  0  0  0  0  0  0  0
   -3.5977    1.5496   -0.7263 O   0  0  0  0  0  0  0  0  0  0  0  0
   -3.3928    3.6955    0.0275 N   0  0  0  0  0  0  0  0  0  0  0  0
   -4.8137    3.8421    0.0488 C   0  0  0  0  0  0  0  0  0  0  0  0
   -5.6191    2.9801    0.8049 C   0  0  0  0  0  0  0  0  0  0  0  0
   -7.0181    3.0558    0.7297 C   0  0  0  0  0  0  0  0  0  0  0  0
   -7.6313    3.9814   -0.1184 C   0  0  0  0  0  0  0  0  0  0  0  0
   -9.0093    3.9659   -0.1235 O   0  0  0  0  0  0  0  0  0  0  0  0
   -9.7227    4.2529   -1.2669 C   0  0  0  0  0  0  0  0  0  0  0  0
   -9.2855    4.0021   -2.5617 C   0  0  0  0  0  0  0  0  0  0  0  0
  -10.1062    4.3811   -3.6111 C   0  0  0  0  0  0  0  0  0  0  0  0
  -11.3312    4.9314   -3.4564 N   0  0  0  0  0  0  0  0  0  0  0  0
  -11.7652    5.1067   -2.1864 C   0  0  0  0  0  0  0  0  0  0  0  0
  -13.1028    5.6886   -2.0853 C   0  0  0  0  0  0  0  0  0  0  0  0
  -13.8999    6.0069   -0.9967 C   0  0  0  0  0  0  0  0  0  0  0  0
  -15.1298    6.5667   -1.4650 C   0  0  0  0  0  0  0  0  0  0  0  0
  -16.2921    7.0608   -0.7261 C   0  0  0  0  0  0  0  0  0  0  0  0
  -17.2909    7.5159   -1.2632 O   0  0  0  0  0  0  0  0  0  0  0  0
  -16.1931    6.9835    0.6261 O   0  0  0  0  0  0  0  0  0  0  0  0
  -15.0339    6.5684   -2.8455 C   0  0  0  0  0  0  0  0  0  0  0  0
  -13.8221    6.0462   -3.2055 N   0  0  0  0  0  0  0  0  0  0  0  0
  -11.0018    4.7753   -1.0730 C   0  0  0  0  0  0  0  0  0  0  0  0
   -6.8189    4.8827   -0.8144 C   0  0  0  0  0  0  0  0  0  0  0  0
   -7.3546    5.8269   -1.6017 F   0  0  0  0  0  0  0  0  0  0  0  0
   -5.4220    4.8203   -0.7362 C   0  0  0  0  0  0  0  0  0  0  0  0
    0.6682    1.4936   -1.0299 C   0  0  0  0  0  0  0  0  0  0  0  0
    3.4153   -0.3177   -2.0818 H   0  0  0  0  0  0  0  0  0  0  0  0
    3.4903    1.0537   -0.9745 H   0  0  0  0  0  0  0  0  0  0  0  0
    3.0112    1.2923   -2.6829 H   0  0  0  0  0  0  0  0  0  0  0  0
    1.5682   -1.7140   -1.8233 H   0  0  0  0  0  0  0  0  0  0  0  0
   -0.7863   -2.0912   -1.1754 H   0  0  0  0  0  0  0  0  0  0  0  0
   -0.9934    3.2852   -0.1643 H   0  0  0  0  0  0  0  0  0  0  0  0
   -2.8814    4.4820   -0.3431 H   0  0  0  0  0  0  0  0  0  0  0  0
   -5.1650    2.2275    1.4472 H   0  0  0  0  0  0  0  0  0  0  0  0
   -7.6240    2.3720    1.3203 H   0  0  0  0  0  0  0  0  0  0  0  0
   -8.3250    3.5472   -2.7690 H   0  0  0  0  0  0  0  0  0  0  0  0
   -9.7834    4.2518   -4.6404 H   0  0  0  0  0  0  0  0  0  0  0  0
  -13.6064    5.8456    0.0316 H   0  0  0  0  0  0  0  0  0  0  0  0
  -15.3500    6.6073    0.9245 H   0  0  0  0  0  0  0  0  0  0  0  0
  -15.7364    6.9057   -3.5978 H   0  0  0  0  0  0  0  0  0  0  0  0
  -13.4724    5.9314   -4.1498 H   0  0  0  0  0  0  0  0  0  0  0  0
  -11.3794    4.9225   -0.0687 H   0  0  0  0  0  0  0  0  0  0  0  0
   -4.8406    5.4954   -1.3537 H   0  0  0  0  0  0  0  0  0  0  0  0
    1.0950    2.4933   -1.0008 H   0  0  0  0  0  0  0  0  0  0  0  0
  1  2  1  0  0  0  0
  1 35  1  0  0  0  0
  1 36  1  0  0  0  0
  1 37  1  0  0  0  0
  2  3  1  0  0  0  0
  2 34  2  0  0  0  0
  3  4  2  0  0  0  0
  3 38  1  0  0  0  0
  4  5  1  0  0  0  0
  4 39  1  0  0  0  0
  5  6  1  0  0  0  0
  5  7  2  0  0  0  0
  7  8  1  0  0  0  0
  7 34  1  0  0  0  0
  8  9  1  0  0  0  0
  8 40  1  0  0  0  0
  9 10  2  0  0  0  0
  9 11  1  0  0  0  0
 11 12  1  0  0  0  0
 11 41  1  0  0  0  0
 12 13  1  0  0  0  0
 12 33  2  0  0  0  0
 13 14  2  0  0  0  0
 13 42  1  0  0  0  0
 14 15  1  0  0  0  0
 14 43  1  0  0  0  0
 15 16  1  0  0  0  0
 15 31  2  0  0  0  0
 16 17  1  0  0  0  0
 17 18  1  0  0  0  0
 17 30  2  0  0  0  0
 18 19  2  0  0  0  0
 18 44  1  0  0  0  0
 19 20  1  0  0  0  0
 19 45  1  0  0  0  0
 20 21  2  0  0  0  0
 21 22  1  0  0  0  0
 21 30  1  0  0  0  0
 22 23  2  0  0  0  0
 22 29  1  0  0  0  0
 23 24  1  0  0  0  0
 23 46  1  0  0  0  0
 24 25  1  0  0  0  0
 24 28  2  0  0  0  0
 25 26  2  0  0  0  0
 25 27  1  0  0  0  0
 27 47  1  0  0  0  0
 28 29  1  0  0  0  0
 28 48  1  0  0  0  0
 29 49  1  0  0  0  0
 30 50  1  0  0  0  0
 31 32  1  0  0  0  0
 31 33  1  0  0  0  0
 33 51  1  0  0  0  0
 34 52  1  0  0  0  0
M  END
$$$$
