CHEMBL3976280
 OpenBabel04072215373D

 71 76  0  0  0  0  0  0  0  0999 V2000
    5.2095    5.5874   -4.2457 C   0  0  0  0  0  0  0  0  0  0  0  0
    5.0332    4.8337   -3.0464 O   0  0  0  0  0  0  0  0  0  0  0  0
    6.1602    4.5545   -2.3119 C   0  0  0  0  0  0  0  0  0  0  0  0
    7.4578    4.8247   -2.7108 C   0  0  0  0  0  0  0  0  0  0  0  0
    8.5202    4.4494   -1.8889 C   0  0  0  0  0  0  0  0  0  0  0  0
    9.8449    4.6570   -2.1735 O   0  0  0  0  0  0  0  0  0  0  0  0
   10.1329    5.4717   -3.3068 C   0  0  0  0  0  0  0  0  0  0  0  0
    8.2762    3.8057   -0.6580 C   0  0  0  0  0  0  0  0  0  0  0  0
    6.9827    3.5872   -0.1713 C   0  0  0  0  0  0  0  0  0  0  0  0
    6.7462    2.9894    1.1029 N   0  0  0  0  0  0  0  0  0  0  0  0
    5.3614    3.2040    1.6805 C   0  0  0  0  0  0  0  0  0  0  0  0
    4.2777    2.2151    1.2604 C   0  0  0  0  0  0  0  0  0  0  0  0
    2.9241    2.4448    1.9165 C   0  0  0  0  0  0  0  0  0  0  0  0
    3.6364    1.1483    2.1371 C   0  0  0  0  0  0  0  0  0  0  0  0
    7.6452    2.6609    2.1888 C   0  0  0  0  0  0  0  0  0  0  0  0
    7.2434    1.5612    2.9537 C   0  0  0  0  0  0  0  0  0  0  0  0
    7.5922    1.5078    4.2893 C   0  0  0  0  0  0  0  0  0  0  0  0
    8.5163    2.3655    4.8234 C   0  0  0  0  0  0  0  0  0  0  0  0
    8.5917    2.3558    6.1672 N   0  0  0  0  0  0  0  0  0  0  0  0
    9.6964    2.8810    6.7088 C   0  0  0  0  0  0  0  0  0  0  0  0
   10.7657    3.2530    5.9166 C   0  0  0  0  0  0  0  0  0  0  0  0
   12.0641    2.8417    6.4796 C   0  0  0  0  0  0  0  0  0  0  0  0
   13.1697    3.5175    7.0382 C   0  0  0  0  0  0  0  0  0  0  0  0
   14.0765    2.6880    7.5883 N   0  0  0  0  0  0  0  0  0  0  0  0
   13.5677    1.4525    7.3839 N   0  0  0  0  0  0  0  0  0  0  0  0
   14.4483    0.2888    7.3119 C   0  0  0  0  0  0  0  0  0  0  0  0
   14.8957   -0.4852    8.5863 C   0  0  0  0  0  0  0  0  0  0  0  0
   15.7364    0.3175    9.5869 C   0  0  0  0  0  0  0  0  0  0  0  0
   17.0744    0.7530    8.9850 C   0  0  0  0  0  0  0  0  0  0  0  0
   17.8707   -0.3700    8.4787 N   0  0  0  0  0  0  0  0  0  0  0  0
   17.1260   -1.2723    7.6025 C   0  0  0  0  0  0  0  0  0  0  0  0
   15.7724   -1.7016    8.1833 C   0  0  0  0  0  0  0  0  0  0  0  0
   12.3105    1.5170    6.8311 C   0  0  0  0  0  0  0  0  0  0  0  0
   10.5834    3.5081    4.5685 N   0  0  0  0  0  0  0  0  0  0  0  0
    9.3559    3.1211    3.9916 C   0  0  0  0  0  0  0  0  0  0  0  0
    8.7866    3.3682    2.6689 C   0  0  0  0  0  0  0  0  0  0  0  0
    5.9371    3.9429   -1.0610 C   0  0  0  0  0  0  0  0  0  0  0  0
    4.2236    5.7609   -4.6894 H   0  0  0  0  0  0  0  0  0  0  0  0
    5.8064    5.0367   -4.9808 H   0  0  0  0  0  0  0  0  0  0  0  0
    5.6530    6.5661   -4.0335 H   0  0  0  0  0  0  0  0  0  0  0  0
    7.6496    5.3015   -3.6650 H   0  0  0  0  0  0  0  0  0  0  0  0
   11.2100    5.6577   -3.3207 H   0  0  0  0  0  0  0  0  0  0  0  0
    9.6313    6.4442   -3.2440 H   0  0  0  0  0  0  0  0  0  0  0  0
    9.8696    4.9531   -4.2346 H   0  0  0  0  0  0  0  0  0  0  0  0
    9.1362    3.4799   -0.0855 H   0  0  0  0  0  0  0  0  0  0  0  0
    5.0210    4.2181    1.4315 H   0  0  0  0  0  0  0  0  0  0  0  0
    5.3845    3.2150    2.7797 H   0  0  0  0  0  0  0  0  0  0  0  0
    4.2863    1.9928    0.2008 H   0  0  0  0  0  0  0  0  0  0  0  0
    2.0395    2.4560    1.2917 H   0  0  0  0  0  0  0  0  0  0  0  0
    2.8527    3.1045    2.7769 H   0  0  0  0  0  0  0  0  0  0  0  0
    3.1794    0.2818    1.6650 H   0  0  0  0  0  0  0  0  0  0  0  0
    4.0292    0.9448    3.1246 H   0  0  0  0  0  0  0  0  0  0  0  0
    6.5350    0.8504    2.5624 H   0  0  0  0  0  0  0  0  0  0  0  0
    7.1200    0.7812    4.9320 H   0  0  0  0  0  0  0  0  0  0  0  0
    9.7714    2.7911    7.7859 H   0  0  0  0  0  0  0  0  0  0  0  0
   13.3568    4.5822    7.0915 H   0  0  0  0  0  0  0  0  0  0  0  0
   15.3146    0.6290    6.7371 H   0  0  0  0  0  0  0  0  0  0  0  0
   13.9243   -0.4308    6.6684 H   0  0  0  0  0  0  0  0  0  0  0  0
   14.0026   -0.8621    9.1024 H   0  0  0  0  0  0  0  0  0  0  0  0
   15.9412   -0.3178   10.4632 H   0  0  0  0  0  0  0  0  0  0  0  0
   15.1788    1.1804    9.9613 H   0  0  0  0  0  0  0  0  0  0  0  0
   17.6608    1.2716    9.7526 H   0  0  0  0  0  0  0  0  0  0  0  0
   16.9117    1.4800    8.1838 H   0  0  0  0  0  0  0  0  0  0  0  0
   18.2581   -0.8943    9.2611 H   0  0  0  0  0  0  0  0  0  0  0  0
   17.7397   -2.1636    7.4227 H   0  0  0  0  0  0  0  0  0  0  0  0
   16.9914   -0.8073    6.6199 H   0  0  0  0  0  0  0  0  0  0  0  0
   15.9555   -2.3324    9.0657 H   0  0  0  0  0  0  0  0  0  0  0  0
   15.2457   -2.3337    7.4597 H   0  0  0  0  0  0  0  0  0  0  0  0
   11.7233    0.6204    6.6813 H   0  0  0  0  0  0  0  0  0  0  0  0
    9.2364    4.1642    2.0775 H   0  0  0  0  0  0  0  0  0  0  0  0
    4.8985    3.7487   -0.8245 H   0  0  0  0  0  0  0  0  0  0  0  0
  1  2  1  0  0  0  0
  1 38  1  0  0  0  0
  1 39  1  0  0  0  0
  1 40  1  0  0  0  0
  2  3  1  0  0  0  0
  3  4  1  0  0  0  0
  3 37  2  0  0  0  0
  4  5  2  0  0  0  0
  4 41  1  0  0  0  0
  5  6  1  0  0  0  0
  5  8  1  0  0  0  0
  6  7  1  0  0  0  0
  7 42  1  0  0  0  0
  7 43  1  0  0  0  0
  7 44  1  0  0  0  0
  8  9  2  0  0  0  0
  8 45  1  0  0  0  0
  9 10  1  0  0  0  0
  9 37  1  0  0  0  0
 10 11  1  0  0  0  0
 10 15  1  0  0  0  0
 11 12  1  0  0  0  0
 11 46  1  0  0  0  0
 11 47  1  0  0  0  0
 12 13  1  0  0  0  0
 12 14  1  0  0  0  0
 12 48  1  0  0  0  0
 13 14  1  0  0  0  0
 13 49  1  0  0  0  0
 13 50  1  0  0  0  0
 14 51  1  0  0  0  0
 14 52  1  0  0  0  0
 15 16  1  0  0  0  0
 15 36  2  0  0  0  0
 16 17  2  0  0  0  0
 16 53  1  0  0  0  0
 17 18  1  0  0  0  0
 17 54  1  0  0  0  0
 18 19  1  0  0  0  0
 18 35  2  0  0  0  0
 19 20  2  0  0  0  0
 20 21  1  0  0  0  0
 20 55  1  0  0  0  0
 21 22  1  0  0  0  0
 21 34  2  0  0  0  0
 22 23  1  0  0  0  0
 22 33  2  0  0  0  0
 23 24  2  0  0  0  0
 23 56  1  0  0  0  0
 24 25  1  0  0  0  0
 25 26  1  0  0  0  0
 25 33  1  0  0  0  0
 26 27  1  0  0  0  0
 26 57  1  0  0  0  0
 26 58  1  0  0  0  0
 27 28  1  0  0  0  0
 27 32  1  0  0  0  0
 27 59  1  0  0  0  0
 28 29  1  0  0  0  0
 28 60  1  0  0  0  0
 28 61  1  0  0  0  0
 29 30  1  0  0  0  0
 29 62  1  0  0  0  0
 29 63  1  0  0  0  0
 30 31  1  0  0  0  0
 30 64  1  0  0  0  0
 31 32  1  0  0  0  0
 31 65  1  0  0  0  0
 31 66  1  0  0  0  0
 32 67  1  0  0  0  0
 32 68  1  0  0  0  0
 33 69  1  0  0  0  0
 34 35  1  0  0  0  0
 35 36  1  0  0  0  0
 36 70  1  0  0  0  0
 37 71  1  0  0  0  0
M  END
$$$$
