CHEMBL4104302
 OpenBabel04072215383D

 49 52  0  0  0  0  0  0  0  0999 V2000
    6.4412    0.7959    3.3396 N   0  0  0  0  0  0  0  0  0  0  0  0
    5.6197   -0.0687    2.6149 C   0  0  0  0  0  0  0  0  0  0  0  0
    4.3021    0.0708    2.8672 N   0  0  0  0  0  0  0  0  0  0  0  0
    3.4450   -0.6622    2.1288 C   0  0  0  0  0  0  0  0  0  0  0  0
    3.8410   -1.5455    1.1445 C   0  0  0  0  0  0  0  0  0  0  0  0
    5.2072   -1.7501    0.9536 C   0  0  0  0  0  0  0  0  0  0  0  0
    5.7069   -2.6814    0.0702 O   0  0  0  0  0  0  0  0  0  0  0  0
    4.9812   -3.8207   -0.1861 C   0  0  0  0  0  0  0  0  0  0  0  0
    4.9688   -4.2535   -1.5103 C   0  0  0  0  0  0  0  0  0  0  0  0
    4.2308   -5.3826   -1.8685 C   0  0  0  0  0  0  0  0  0  0  0  0
    3.4908   -6.0929   -0.9200 C   0  0  0  0  0  0  0  0  0  0  0  0
    2.7082   -7.2152   -1.2357 N   0  0  0  0  0  0  0  0  0  0  0  0
    2.4762   -7.7217   -2.5022 C   0  0  0  0  0  0  0  0  0  0  0  0
    2.8717   -7.2788   -3.5662 O   0  0  0  0  0  0  0  0  0  0  0  0
    1.6214   -8.9446   -2.5213 C   0  0  0  0  0  0  0  0  0  0  0  0
    0.1882   -8.6685   -2.2418 C   0  0  0  0  0  0  0  0  0  0  0  0
   -0.1325   -8.4848   -1.0720 O   0  0  0  0  0  0  0  0  0  0  0  0
   -0.6639   -8.6281   -3.3343 N   0  0  0  0  0  0  0  0  0  0  0  0
   -2.0212   -8.3185   -3.1368 C   0  0  0  0  0  0  0  0  0  0  0  0
   -2.3816   -7.2093   -2.3588 C   0  0  0  0  0  0  0  0  0  0  0  0
   -3.7076   -7.0175   -1.9840 C   0  0  0  0  0  0  0  0  0  0  0  0
   -4.6613   -7.9411   -2.3877 C   0  0  0  0  0  0  0  0  0  0  0  0
   -5.9213   -7.8161   -1.9524 F   0  0  0  0  0  0  0  0  0  0  0  0
   -4.3242   -9.0063   -3.2204 C   0  0  0  0  0  0  0  0  0  0  0  0
   -3.0002   -9.1783   -3.6322 C   0  0  0  0  0  0  0  0  0  0  0  0
    2.1886  -10.2281   -1.9089 C   0  0  0  0  0  0  0  0  0  0  0  0
    2.0881  -10.1008   -3.3952 C   0  0  0  0  0  0  0  0  0  0  0  0
    3.5369   -5.6819    0.4167 C   0  0  0  0  0  0  0  0  0  0  0  0
    4.3059   -4.5698    0.7726 C   0  0  0  0  0  0  0  0  0  0  0  0
    4.3419   -4.2279    2.0723 F   0  0  0  0  0  0  0  0  0  0  0  0
    6.1191   -0.9613    1.6599 C   0  0  0  0  0  0  0  0  0  0  0  0
    7.8226   -1.0951    1.3770 Cl  0  0  0  0  0  0  0  0  0  0  0  0
    5.8580    1.2629    4.0288 H   0  0  0  0  0  0  0  0  0  0  0  0
    7.2363    0.3147    3.7443 H   0  0  0  0  0  0  0  0  0  0  0  0
    2.3928   -0.5239    2.3605 H   0  0  0  0  0  0  0  0  0  0  0  0
    3.0905   -2.0795    0.5745 H   0  0  0  0  0  0  0  0  0  0  0  0
    5.5234   -3.7095   -2.2690 H   0  0  0  0  0  0  0  0  0  0  0  0
    4.2561   -5.6741   -2.9157 H   0  0  0  0  0  0  0  0  0  0  0  0
    2.2040   -7.6619   -0.4779 H   0  0  0  0  0  0  0  0  0  0  0  0
   -0.3973   -9.1628   -4.1514 H   0  0  0  0  0  0  0  0  0  0  0  0
   -1.6259   -6.5035   -2.0206 H   0  0  0  0  0  0  0  0  0  0  0  0
   -3.9878   -6.1824   -1.3510 H   0  0  0  0  0  0  0  0  0  0  0  0
   -5.0908   -9.7190   -3.5071 H   0  0  0  0  0  0  0  0  0  0  0  0
   -2.7389  -10.0373   -4.2426 H   0  0  0  0  0  0  0  0  0  0  0  0
    1.5050  -10.9137   -1.4177 H   0  0  0  0  0  0  0  0  0  0  0  0
    3.1679  -10.1826   -1.4453 H   0  0  0  0  0  0  0  0  0  0  0  0
    1.3628  -10.7145   -3.9118 H   0  0  0  0  0  0  0  0  0  0  0  0
    3.0166   -9.9694   -3.9468 H   0  0  0  0  0  0  0  0  0  0  0  0
    2.9832   -6.1994    1.1914 H   0  0  0  0  0  0  0  0  0  0  0  0
  1  2  1  0  0  0  0
  1 33  1  0  0  0  0
  1 34  1  0  0  0  0
  2  3  1  0  0  0  0
  2 31  2  0  0  0  0
  3  4  2  0  0  0  0
  4  5  1  0  0  0  0
  4 35  1  0  0  0  0
  5  6  2  0  0  0  0
  5 36  1  0  0  0  0
  6  7  1  0  0  0  0
  6 31  1  0  0  0  0
  7  8  1  0  0  0  0
  8  9  1  0  0  0  0
  8 29  2  0  0  0  0
  9 10  2  0  0  0  0
  9 37  1  0  0  0  0
 10 11  1  0  0  0  0
 10 38  1  0  0  0  0
 11 12  1  0  0  0  0
 11 28  2  0  0  0  0
 12 13  1  0  0  0  0
 12 39  1  0  0  0  0
 13 14  2  0  0  0  0
 13 15  1  0  0  0  0
 15 16  1  0  0  0  0
 15 26  1  0  0  0  0
 15 27  1  0  0  0  0
 16 17  2  0  0  0  0
 16 18  1  0  0  0  0
 18 19  1  0  0  0  0
 18 40  1  0  0  0  0
 19 20  1  0  0  0  0
 19 25  2  0  0  0  0
 20 21  2  0  0  0  0
 20 41  1  0  0  0  0
 21 22  1  0  0  0  0
 21 42  1  0  0  0  0
 22 23  1  0  0  0  0
 22 24  2  0  0  0  0
 24 25  1  0  0  0  0
 24 43  1  0  0  0  0
 25 44  1  0  0  0  0
 26 27  1  0  0  0  0
 26 45  1  0  0  0  0
 26 46  1  0  0  0  0
 27 47  1  0  0  0  0
 27 48  1  0  0  0  0
 28 29  1  0  0  0  0
 28 49  1  0  0  0  0
 29 30  1  0  0  0  0
 31 32  1  0  0  0  0
M  END
$$$$
