CHEMBL3975986
 OpenBabel04072215373D

 64 67  0  0  0  0  0  0  0  0999 V2000
    0.6488    2.0773   -3.0586 C   0  0  0  0  0  0  0  0  0  0  0  0
    2.0229    1.7630   -2.9643 O   0  0  0  0  0  0  0  0  0  0  0  0
    2.3517    1.4985   -1.6162 C   0  0  0  0  0  0  0  0  0  0  0  0
    3.8756    1.2850   -1.4706 C   0  0  0  0  0  0  0  0  0  0  0  0
    4.6855    2.4929   -1.9363 C   0  0  0  0  0  0  0  0  0  0  0  0
    4.4075    3.7404   -1.3819 C   0  0  0  0  0  0  0  0  0  0  0  0
    5.0704    4.8828   -1.8194 C   0  0  0  0  0  0  0  0  0  0  0  0
    4.7298    6.0683   -1.2603 O   0  0  0  0  0  0  0  0  0  0  0  0
    5.2785    7.2796   -1.6158 C   0  0  0  0  0  0  0  0  0  0  0  0
    6.0646    4.7857   -2.8129 C   0  0  0  0  0  0  0  0  0  0  0  0
    6.4472    3.5570   -3.3478 C   0  0  0  0  0  0  0  0  0  0  0  0
    7.5204    3.4628   -4.3314 N   0  0  0  0  0  0  0  0  0  0  0  0
    8.1221    2.1009   -4.5333 C   0  0  0  0  0  0  0  0  0  0  0  0
    7.5557    1.2869   -5.7462 C   0  0  0  0  0  0  0  0  0  0  0  0
    8.1519   -0.1315   -5.8298 C   0  0  0  0  0  0  0  0  0  0  0  0
    8.5516    0.8943   -6.8566 C   0  0  0  0  0  0  0  0  0  0  0  0
    8.2325    4.5645   -5.0356 C   0  0  0  0  0  0  0  0  0  0  0  0
    8.5798    4.1874   -6.3331 C   0  0  0  0  0  0  0  0  0  0  0  0
    9.4406    4.8565   -7.0974 C   0  0  0  0  0  0  0  0  0  0  0  0
    9.9796    6.0070   -6.6986 C   0  0  0  0  0  0  0  0  0  0  0  0
   10.9319    6.4644   -7.4904 N   0  0  0  0  0  0  0  0  0  0  0  0
   11.4898    7.6394   -7.3146 C   0  0  0  0  0  0  0  0  0  0  0  0
   10.9898    8.5258   -6.3626 C   0  0  0  0  0  0  0  0  0  0  0  0
   11.3815    9.9832   -6.7175 C   0  0  0  0  0  0  0  0  0  0  0  0
   12.0621   10.3100   -7.9210 C   0  0  0  0  0  0  0  0  0  0  0  0
   12.1203   11.6237   -8.0983 N   0  0  0  0  0  0  0  0  0  0  0  0
   11.5254   12.1908   -7.0762 N   0  0  0  0  0  0  0  0  0  0  0  0
   11.3366   13.6368   -7.0582 C   0  0  0  0  0  0  0  0  0  0  0  0
   11.0841   11.2484   -6.1889 C   0  0  0  0  0  0  0  0  0  0  0  0
   10.0778    8.0127   -5.4062 N   0  0  0  0  0  0  0  0  0  0  0  0
    9.5859    6.6895   -5.5365 C   0  0  0  0  0  0  0  0  0  0  0  0
    8.6984    5.9238   -4.6298 C   0  0  0  0  0  0  0  0  0  0  0  0
    5.7125    2.4000   -2.9088 C   0  0  0  0  0  0  0  0  0  0  0  0
    1.9905   -2.4100   -0.1220 Cl  0  0  0  0  0  0  0  0  0  0  0  0
    0.4338    2.3985   -4.0985 H   0  0  0  0  0  0  0  0  0  0  0  0
    0.3682    2.9343   -2.4042 H   0  0  0  0  0  0  0  0  0  0  0  0
    0.0179    1.1861   -2.8463 H   0  0  0  0  0  0  0  0  0  0  0  0
    1.8238    0.5842   -1.2594 H   0  0  0  0  0  0  0  0  0  0  0  0
    2.0469    2.3462   -0.9610 H   0  0  0  0  0  0  0  0  0  0  0  0
    4.1658    0.3693   -2.0312 H   0  0  0  0  0  0  0  0  0  0  0  0
    4.0832    1.0988   -0.3931 H   0  0  0  0  0  0  0  0  0  0  0  0
    3.6537    3.8419   -0.6128 H   0  0  0  0  0  0  0  0  0  0  0  0
    4.8507    8.0738   -0.9756 H   0  0  0  0  0  0  0  0  0  0  0  0
    5.0434    7.4968   -2.6801 H   0  0  0  0  0  0  0  0  0  0  0  0
    6.3798    7.2535   -1.4685 H   0  0  0  0  0  0  0  0  0  0  0  0
    6.5465    5.6694   -3.1503 H   0  0  0  0  0  0  0  0  0  0  0  0
    8.0682    1.4987   -3.6050 H   0  0  0  0  0  0  0  0  0  0  0  0
    9.2261    2.2139   -4.6411 H   0  0  0  0  0  0  0  0  0  0  0  0
    6.4628    1.1072   -5.8154 H   0  0  0  0  0  0  0  0  0  0  0  0
    7.6399   -0.9025   -6.4490 H   0  0  0  0  0  0  0  0  0  0  0  0
    9.1179   -0.3982   -5.3520 H   0  0  0  0  0  0  0  0  0  0  0  0
    8.0336    0.8956   -7.8409 H   0  0  0  0  0  0  0  0  0  0  0  0
    9.5510    1.3682   -6.7182 H   0  0  0  0  0  0  0  0  0  0  0  0
    8.2118    3.3145   -6.7738 H   0  0  0  0  0  0  0  0  0  0  0  0
    9.7146    4.4308   -8.0587 H   0  0  0  0  0  0  0  0  0  0  0  0
   12.2343    7.8536   -8.0381 H   0  0  0  0  0  0  0  0  0  0  0  0
   12.4456    9.6843   -8.7094 H   0  0  0  0  0  0  0  0  0  0  0  0
   11.7094   14.0760   -8.0178 H   0  0  0  0  0  0  0  0  0  0  0  0
   11.8916   14.0995   -6.2228 H   0  0  0  0  0  0  0  0  0  0  0  0
   10.2538   13.8623   -7.0022 H   0  0  0  0  0  0  0  0  0  0  0  0
   10.5352   11.4818   -5.2906 H   0  0  0  0  0  0  0  0  0  0  0  0
    8.4618    6.3494   -3.6577 H   0  0  0  0  0  0  0  0  0  0  0  0
    5.9151    1.4161   -3.3152 H   0  0  0  0  0  0  0  0  0  0  0  0
    2.0181   -1.6795    1.0433 H   0  0  0  0  0  0  0  0  0  0  0  0
  1  2  1  0  0  0  0
  1 35  1  0  0  0  0
  1 36  1  0  0  0  0
  1 37  1  0  0  0  0
  2  3  1  0  0  0  0
  3  4  1  0  0  0  0
  3 38  1  0  0  0  0
  3 39  1  0  0  0  0
  4  5  1  0  0  0  0
  4 40  1  0  0  0  0
  4 41  1  0  0  0  0
  5  6  1  0  0  0  0
  5 33  2  0  0  0  0
  6  7  2  0  0  0  0
  6 42  1  0  0  0  0
  7  8  1  0  0  0  0
  7 10  1  0  0  0  0
  8  9  1  0  0  0  0
  9 43  1  0  0  0  0
  9 44  1  0  0  0  0
  9 45  1  0  0  0  0
 10 11  2  0  0  0  0
 10 46  1  0  0  0  0
 11 12  1  0  0  0  0
 11 33  1  0  0  0  0
 12 13  1  0  0  0  0
 12 17  1  0  0  0  0
 13 14  1  0  0  0  0
 13 47  1  0  0  0  0
 13 48  1  0  0  0  0
 14 15  1  0  0  0  0
 14 16  1  0  0  0  0
 14 49  1  0  0  0  0
 15 16  1  0  0  0  0
 15 50  1  0  0  0  0
 15 51  1  0  0  0  0
 16 52  1  0  0  0  0
 16 53  1  0  0  0  0
 17 18  1  0  0  0  0
 17 32  2  0  0  0  0
 18 19  2  0  0  0  0
 18 54  1  0  0  0  0
 19 20  1  0  0  0  0
 19 55  1  0  0  0  0
 20 21  1  0  0  0  0
 20 31  2  0  0  0  0
 21 22  2  0  0  0  0
 22 23  1  0  0  0  0
 22 56  1  0  0  0  0
 23 24  1  0  0  0  0
 23 30  2  0  0  0  0
 24 25  1  0  0  0  0
 24 29  2  0  0  0  0
 25 26  2  0  0  0  0
 25 57  1  0  0  0  0
 26 27  1  0  0  0  0
 27 28  1  0  0  0  0
 27 29  1  0  0  0  0
 28 58  1  0  0  0  0
 28 59  1  0  0  0  0
 28 60  1  0  0  0  0
 29 61  1  0  0  0  0
 30 31  1  0  0  0  0
 31 32  1  0  0  0  0
 32 62  1  0  0  0  0
 33 63  1  0  0  0  0
 34 64  1  0  0  0  0
M  END
$$$$
