CHEMBL4557318
 OpenBabel04072215383D

 63 68  0  0  1  0  0  0  0  0999 V2000
   -2.4090    2.4225   -1.4638 N   0  0  0  0  0  0  0  0  0  0  0  0
   -1.3303    2.0712   -1.2149 C   0  0  0  0  0  0  0  0  0  0  0  0
    0.0022    1.6320   -0.9021 C   0  0  0  0  0  0  0  0  0  0  0  0
    1.0668    1.9292   -1.7599 C   0  0  0  0  0  0  0  0  0  0  0  0
    2.3651    1.4875   -1.4598 C   0  0  0  0  0  0  0  0  0  0  0  0
    2.6168    0.7500   -0.2958 C   0  0  0  0  0  0  0  0  0  0  0  0
    3.9638    0.2686    0.0054 C   0  0  0  0  0  0  0  0  0  0  0  0
    4.4300    0.0988    1.2923 C   0  0  0  0  0  0  0  0  0  0  0  0
    5.9701   -0.6312    1.2693 S   0  0  0  0  0  0  0  0  0  0  0  0
    5.9683   -0.5978   -0.4660 C   0  0  0  0  0  0  0  0  0  0  0  0
    7.0409   -1.0746   -1.1651 N   0  0  0  0  0  0  0  0  0  0  0  0
    7.9127   -2.0350   -0.7108 N   0  0  0  0  0  0  0  0  0  0  0  0
    8.6857   -2.3586   -1.7009 C   0  0  0  0  0  0  0  0  0  0  0  0
    9.7345   -3.4027   -1.6126 C   0  0  0  0  0  0  0  0  0  0  0  0
    9.8937   -4.1370   -0.4361 C   0  0  0  0  0  0  0  0  0  0  0  0
   10.8372   -5.1742   -0.3750 C   0  0  0  0  0  0  0  0  0  0  0  0
   11.6359   -5.5142   -1.4784 C   0  0  0  0  0  0  0  0  0  0  0  0
   12.4657   -6.6228   -1.4415 N   0  0  0  0  0  0  0  0  0  0  0  0
   12.8390   -7.3241   -2.6715 C   0  0  0  0  0  0  0  0  0  0  0  0
   12.8716   -8.8254   -2.3877 C   0  0  0  0  0  0  0  0  0  0  0  0
   13.7742   -9.1592   -1.2019 C   0  0  0  0  0  0  0  0  0  0  0  0
   13.4298   -8.3106    0.0237 C   0  0  0  0  0  0  0  0  0  0  0  0
   13.3841   -6.8200   -0.3162 C   0  0  0  0  0  0  0  0  0  0  0  0
   11.4827   -4.7337   -2.6320 C   0  0  0  0  0  0  0  0  0  0  0  0
   10.5474   -3.6946   -2.7066 C   0  0  0  0  0  0  0  0  0  0  0  0
    8.4378   -1.6040   -2.9774 C   0  0  0  0  0  0  0  0  0  0  0  0
    7.2427   -0.7370   -2.5708 C   0  0  3  0  0  0  0  0  0  0  0  0
    7.5409    0.7443   -2.7590 C   0  0  0  0  0  0  0  0  0  0  0  0
    6.7841    1.5042   -3.6645 C   0  0  0  0  0  0  0  0  0  0  0  0
    7.0240    2.8725   -3.8160 C   0  0  0  0  0  0  0  0  0  0  0  0
    8.0236    3.4896   -3.0667 C   0  0  0  0  0  0  0  0  0  0  0  0
    8.3008    5.1789   -3.2377 Cl  0  0  0  0  0  0  0  0  0  0  0  0
    8.7935    2.7503   -2.1734 C   0  0  0  0  0  0  0  0  0  0  0  0
    8.5530    1.3842   -2.0199 C   0  0  0  0  0  0  0  0  0  0  0  0
    4.8748   -0.0666   -0.9900 N   0  0  0  0  0  0  0  0  0  0  0  0
    1.5390    0.4568    0.5571 C   0  0  0  0  0  0  0  0  0  0  0  0
    0.2428    0.8941    0.2593 C   0  0  0  0  0  0  0  0  0  0  0  0
    0.8965    2.5028   -2.6691 H   0  0  0  0  0  0  0  0  0  0  0  0
    3.1812    1.7246   -2.1406 H   0  0  0  0  0  0  0  0  0  0  0  0
    3.9468    0.3275    2.2302 H   0  0  0  0  0  0  0  0  0  0  0  0
    9.2683   -3.9366    0.4316 H   0  0  0  0  0  0  0  0  0  0  0  0
   10.8919   -5.7633    0.5380 H   0  0  0  0  0  0  0  0  0  0  0  0
   13.8165   -6.9733   -3.0245 H   0  0  0  0  0  0  0  0  0  0  0  0
   12.1131   -7.1620   -3.4767 H   0  0  0  0  0  0  0  0  0  0  0  0
   13.2091   -9.3646   -3.2797 H   0  0  0  0  0  0  0  0  0  0  0  0
   11.8526   -9.1706   -2.1697 H   0  0  0  0  0  0  0  0  0  0  0  0
   14.8202   -8.9885   -1.4828 H   0  0  0  0  0  0  0  0  0  0  0  0
   13.6762  -10.2223   -0.9544 H   0  0  0  0  0  0  0  0  0  0  0  0
   14.1650   -8.4916    0.8156 H   0  0  0  0  0  0  0  0  0  0  0  0
   12.4519   -8.6215    0.4122 H   0  0  0  0  0  0  0  0  0  0  0  0
   14.3860   -6.4712   -0.5999 H   0  0  0  0  0  0  0  0  0  0  0  0
   13.0993   -6.2563    0.5785 H   0  0  0  0  0  0  0  0  0  0  0  0
   12.0965   -4.9235   -3.5084 H   0  0  0  0  0  0  0  0  0  0  0  0
   10.4693   -3.1467   -3.6397 H   0  0  0  0  0  0  0  0  0  0  0  0
    8.1757   -2.2933   -3.7856 H   0  0  0  0  0  0  0  0  0  0  0  0
    9.3313   -1.0356   -3.2561 H   0  0  0  0  0  0  0  0  0  0  0  0
    6.3685   -1.0325   -3.1659 H   0  0  0  0  0  0  0  0  0  0  0  0
    5.9868    1.0406   -4.2420 H   0  0  0  0  0  0  0  0  0  0  0  0
    6.4203    3.4521   -4.5089 H   0  0  0  0  0  0  0  0  0  0  0  0
    9.5700    3.2294   -1.5834 H   0  0  0  0  0  0  0  0  0  0  0  0
    9.1446    0.8203   -1.2997 H   0  0  0  0  0  0  0  0  0  0  0  0
    1.6874   -0.1365    1.4579 H   0  0  0  0  0  0  0  0  0  0  0  0
   -0.5720    0.6432    0.9363 H   0  0  0  0  0  0  0  0  0  0  0  0
  1  2  3  0  0  0  0
  2  3  1  0  0  0  0
  3  4  1  0  0  0  0
  3 37  2  0  0  0  0
  4  5  2  0  0  0  0
  4 38  1  0  0  0  0
  5  6  1  0  0  0  0
  5 39  1  0  0  0  0
  6  7  1  0  0  0  0
  6 36  2  0  0  0  0
  7  8  2  0  0  0  0
  7 35  1  0  0  0  0
  8  9  1  0  0  0  0
  8 40  1  0  0  0  0
  9 10  1  0  0  0  0
 10 11  1  0  0  0  0
 10 35  2  0  0  0  0
 11 12  1  0  0  0  0
 11 27  1  0  0  0  0
 12 13  2  0  0  0  0
 13 14  1  0  0  0  0
 13 26  1  0  0  0  0
 14 15  1  0  0  0  0
 14 25  2  0  0  0  0
 15 16  2  0  0  0  0
 15 41  1  0  0  0  0
 16 17  1  0  0  0  0
 16 42  1  0  0  0  0
 17 18  1  0  0  0  0
 17 24  2  0  0  0  0
 18 19  1  0  0  0  0
 18 23  1  0  0  0  0
 19 20  1  0  0  0  0
 19 43  1  0  0  0  0
 19 44  1  0  0  0  0
 20 21  1  0  0  0  0
 20 45  1  0  0  0  0
 20 46  1  0  0  0  0
 21 22  1  0  0  0  0
 21 47  1  0  0  0  0
 21 48  1  0  0  0  0
 22 23  1  0  0  0  0
 22 49  1  0  0  0  0
 22 50  1  0  0  0  0
 23 51  1  0  0  0  0
 23 52  1  0  0  0  0
 24 25  1  0  0  0  0
 24 53  1  0  0  0  0
 25 54  1  0  0  0  0
 26 27  1  0  0  0  0
 26 55  1  0  0  0  0
 26 56  1  0  0  0  0
 27 28  1  0  0  0  0
 27 57  1  0  0  0  0
 28 29  1  0  0  0  0
 28 34  2  0  0  0  0
 29 30  2  0  0  0  0
 29 58  1  0  0  0  0
 30 31  1  0  0  0  0
 30 59  1  0  0  0  0
 31 32  1  0  0  0  0
 31 33  2  0  0  0  0
 33 34  1  0  0  0  0
 33 60  1  0  0  0  0
 34 61  1  0  0  0  0
 36 37  1  0  0  0  0
 36 62  1  0  0  0  0
 37 63  1  0  0  0  0
M  END
$$$$
