CHEMBL3656097
 OpenBabel04072215373D

 55 58  0  0  0  0  0  0  0  0999 V2000
    2.6925    1.5603    0.8007 C   0  0  0  0  0  0  0  0  0  0  0  0
    4.0369    1.2326    0.4618 O   0  0  0  0  0  0  0  0  0  0  0  0
    4.7721    0.6833    1.4717 C   0  0  0  0  0  0  0  0  0  0  0  0
    4.3516    0.4726    2.6032 O   0  0  0  0  0  0  0  0  0  0  0  0
    6.1315    0.3847    1.0433 C   0  0  0  0  0  0  0  0  0  0  0  0
    7.1291   -0.2192    1.7886 C   0  0  0  0  0  0  0  0  0  0  0  0
    8.2581   -0.3139    1.0124 N   0  0  0  0  0  0  0  0  0  0  0  0
    8.0234    0.2216   -0.2346 C   0  0  0  0  0  0  0  0  0  0  0  0
    9.0429    0.3149   -1.2741 C   0  0  0  0  0  0  0  0  0  0  0  0
    8.7556    0.8978   -2.5012 C   0  0  0  0  0  0  0  0  0  0  0  0
    9.7961    1.1401   -3.3922 C   0  0  0  0  0  0  0  0  0  0  0  0
    9.6294    1.8191   -4.5848 O   0  0  0  0  0  0  0  0  0  0  0  0
    8.7541    2.8893   -4.6243 C   0  0  0  0  0  0  0  0  0  0  0  0
    8.5090    3.7225   -3.5323 C   0  0  0  0  0  0  0  0  0  0  0  0
    7.5403    4.7241   -3.6068 C   0  0  0  0  0  0  0  0  0  0  0  0
    6.8327    4.9564   -4.7865 C   0  0  0  0  0  0  0  0  0  0  0  0
    5.7832    5.9119   -4.8785 N   0  0  0  0  0  0  0  0  0  0  0  0
    5.1642    6.5097   -3.7894 C   0  0  0  0  0  0  0  0  0  0  0  0
    5.4542    6.2985   -2.6164 O   0  0  0  0  0  0  0  0  0  0  0  0
    4.1176    7.3424   -4.1581 N   0  0  0  0  0  0  0  0  0  0  0  0
    3.3594    8.0156   -3.1644 C   0  0  0  0  0  0  0  0  0  0  0  0
    1.9675    7.9365   -3.2181 C   0  0  0  0  0  0  0  0  0  0  0  0
    1.1955    8.5257   -2.2149 C   0  0  0  0  0  0  0  0  0  0  0  0
    1.8059    9.2466   -1.1874 C   0  0  0  0  0  0  0  0  0  0  0  0
    3.1981    9.3743   -1.1434 C   0  0  0  0  0  0  0  0  0  0  0  0
    3.8593   10.1926   -0.0727 C   0  0  0  0  0  0  0  0  0  0  0  0
    3.9703    8.7366   -2.1276 C   0  0  0  0  0  0  0  0  0  0  0  0
    7.1723    4.1925   -5.9099 C   0  0  0  0  0  0  0  0  0  0  0  0
    6.5508    4.4208   -7.0783 F   0  0  0  0  0  0  0  0  0  0  0  0
    8.1153    3.1598   -5.8357 C   0  0  0  0  0  0  0  0  0  0  0  0
   11.0649    0.6660   -3.0880 C   0  0  0  0  0  0  0  0  0  0  0  0
   11.2496    0.0401   -1.8625 C   0  0  0  0  0  0  0  0  0  0  0  0
   10.2753   -0.1259   -0.9359 N   0  0  0  0  0  0  0  0  0  0  0  0
    6.7106    0.6593   -0.2268 C   0  0  0  0  0  0  0  0  0  0  0  0
    2.1624    1.7985   -0.1262 H   0  0  0  0  0  0  0  0  0  0  0  0
    2.6753    2.4420    1.4473 H   0  0  0  0  0  0  0  0  0  0  0  0
    2.1864    0.7153    1.2765 H   0  0  0  0  0  0  0  0  0  0  0  0
    7.1264   -0.5834    2.8080 H   0  0  0  0  0  0  0  0  0  0  0  0
    9.1514   -0.6986    1.2961 H   0  0  0  0  0  0  0  0  0  0  0  0
    7.7462    1.2132   -2.7340 H   0  0  0  0  0  0  0  0  0  0  0  0
    9.0327    3.5939   -2.5883 H   0  0  0  0  0  0  0  0  0  0  0  0
    7.3717    5.3065   -2.7068 H   0  0  0  0  0  0  0  0  0  0  0  0
    5.4135    6.0866   -5.8051 H   0  0  0  0  0  0  0  0  0  0  0  0
    3.6027    7.0330   -4.9685 H   0  0  0  0  0  0  0  0  0  0  0  0
    1.4714    7.3631   -3.9950 H   0  0  0  0  0  0  0  0  0  0  0  0
    0.1145    8.4159   -2.2268 H   0  0  0  0  0  0  0  0  0  0  0  0
    1.1871    9.7079   -0.4208 H   0  0  0  0  0  0  0  0  0  0  0  0
    3.1256   10.5975    0.6332 H   0  0  0  0  0  0  0  0  0  0  0  0
    4.3865   11.0401   -0.5232 H   0  0  0  0  0  0  0  0  0  0  0  0
    4.5704    9.5857    0.4961 H   0  0  0  0  0  0  0  0  0  0  0  0
    5.0557    8.8104   -2.0840 H   0  0  0  0  0  0  0  0  0  0  0  0
    8.3268    2.5627   -6.7168 H   0  0  0  0  0  0  0  0  0  0  0  0
   11.8924    0.7915   -3.7765 H   0  0  0  0  0  0  0  0  0  0  0  0
   12.2254   -0.3452   -1.5780 H   0  0  0  0  0  0  0  0  0  0  0  0
    6.2026    1.1518   -1.0462 H   0  0  0  0  0  0  0  0  0  0  0  0
  1  2  1  0  0  0  0
  1 35  1  0  0  0  0
  1 36  1  0  0  0  0
  1 37  1  0  0  0  0
  2  3  1  0  0  0  0
  3  4  2  0  0  0  0
  3  5  1  0  0  0  0
  5  6  2  0  0  0  0
  5 34  1  0  0  0  0
  6  7  1  0  0  0  0
  6 38  1  0  0  0  0
  7  8  1  0  0  0  0
  7 39  1  0  0  0  0
  8  9  1  0  0  0  0
  8 34  2  0  0  0  0
  9 10  1  0  0  0  0
  9 33  2  0  0  0  0
 10 11  2  0  0  0  0
 10 40  1  0  0  0  0
 11 12  1  0  0  0  0
 11 31  1  0  0  0  0
 12 13  1  0  0  0  0
 13 14  1  0  0  0  0
 13 30  2  0  0  0  0
 14 15  2  0  0  0  0
 14 41  1  0  0  0  0
 15 16  1  0  0  0  0
 15 42  1  0  0  0  0
 16 17  1  0  0  0  0
 16 28  2  0  0  0  0
 17 18  1  0  0  0  0
 17 43  1  0  0  0  0
 18 19  2  0  0  0  0
 18 20  1  0  0  0  0
 20 21  1  0  0  0  0
 20 44  1  0  0  0  0
 21 22  1  0  0  0  0
 21 27  2  0  0  0  0
 22 23  2  0  0  0  0
 22 45  1  0  0  0  0
 23 24  1  0  0  0  0
 23 46  1  0  0  0  0
 24 25  2  0  0  0  0
 24 47  1  0  0  0  0
 25 26  1  0  0  0  0
 25 27  1  0  0  0  0
 26 48  1  0  0  0  0
 26 49  1  0  0  0  0
 26 50  1  0  0  0  0
 27 51  1  0  0  0  0
 28 29  1  0  0  0  0
 28 30  1  0  0  0  0
 30 52  1  0  0  0  0
 31 32  2  0  0  0  0
 31 53  1  0  0  0  0
 32 33  1  0  0  0  0
 32 54  1  0  0  0  0
 34 55  1  0  0  0  0
M  END
$$$$
