CHEMBL482538
 OpenBabel04072215383D

 25 27  0  0  0  0  0  0  0  0999 V2000
    1.4109   -0.3034    0.0969 C   0  0  0  0  0  0  0  0  0  0  0  0
    0.4867   -1.2361    0.5544 C   0  0  0  0  0  0  0  0  0  0  0  0
   -0.8850   -0.9718    0.4593 C   0  0  0  0  0  0  0  0  0  0  0  0
   -1.3693    0.2365   -0.0777 C   0  0  0  0  0  0  0  0  0  0  0  0
   -2.8212    0.4923   -0.2099 C   0  0  0  0  0  0  0  0  0  0  0  0
   -3.7631    0.0110    0.7211 C   0  0  0  0  0  0  0  0  0  0  0  0
   -5.1182    0.2645    0.5472 C   0  0  0  0  0  0  0  0  0  0  0  0
   -5.6591    0.9748   -0.4608 N   0  0  0  0  0  0  0  0  0  0  0  0
   -4.7398    1.4200   -1.3333 C   0  0  0  0  0  0  0  0  0  0  0  0
   -5.0508    2.1659   -2.4375 N   0  0  0  0  0  0  0  0  0  0  0  0
   -3.9139    2.4481   -3.1443 C   0  0  0  0  0  0  0  0  0  0  0  0
   -2.8591    1.8556   -2.4851 C   0  0  0  0  0  0  0  0  0  0  0  0
   -3.3601    1.2248   -1.3017 C   0  0  0  0  0  0  0  0  0  0  0  0
   -0.4056    1.1809   -0.4759 C   0  0  0  0  0  0  0  0  0  0  0  0
    0.9648    0.9078   -0.4169 C   0  0  0  0  0  0  0  0  0  0  0  0
    2.4751   -0.5169    0.1452 H   0  0  0  0  0  0  0  0  0  0  0  0
    0.8293   -2.1777    0.9754 H   0  0  0  0  0  0  0  0  0  0  0  0
   -1.5740   -1.7409    0.8014 H   0  0  0  0  0  0  0  0  0  0  0  0
   -3.4503   -0.5582    1.5905 H   0  0  0  0  0  0  0  0  0  0  0  0
   -5.8409   -0.1227    1.2618 H   0  0  0  0  0  0  0  0  0  0  0  0
   -5.9916    2.4412   -2.6731 H   0  0  0  0  0  0  0  0  0  0  0  0
   -3.9549    3.0300   -4.0551 H   0  0  0  0  0  0  0  0  0  0  0  0
   -1.8319    1.8854   -2.8230 H   0  0  0  0  0  0  0  0  0  0  0  0
   -0.7092    2.1588   -0.8410 H   0  0  0  0  0  0  0  0  0  0  0  0
    1.6782    1.6464   -0.7729 H   0  0  0  0  0  0  0  0  0  0  0  0
  1  2  1  0  0  0  0
  1 15  2  0  0  0  0
  1 16  1  0  0  0  0
  2  3  2  0  0  0  0
  2 17  1  0  0  0  0
  3  4  1  0  0  0  0
  3 18  1  0  0  0  0
  4  5  1  0  0  0  0
  4 14  2  0  0  0  0
  5  6  1  0  0  0  0
  5 13  2  0  0  0  0
  6  7  2  0  0  0  0
  6 19  1  0  0  0  0
  7  8  1  0  0  0  0
  7 20  1  0  0  0  0
  8  9  2  0  0  0  0
  9 10  1  0  0  0  0
  9 13  1  0  0  0  0
 10 11  1  0  0  0  0
 10 21  1  0  0  0  0
 11 12  2  0  0  0  0
 11 22  1  0  0  0  0
 12 13  1  0  0  0  0
 12 23  1  0  0  0  0
 14 15  1  0  0  0  0
 14 24  1  0  0  0  0
 15 25  1  0  0  0  0
M  END
$$$$
