CHEMBL3358966
 OpenBabel04072215363D

 47 50  0  0  0  0  0  0  0  0999 V2000
    5.9912   -1.6046    3.8596 C   0  0  0  0  0  0  0  0  0  0  0  0
    5.7578   -0.8499    2.6730 O   0  0  0  0  0  0  0  0  0  0  0  0
    5.0096   -1.4304    1.6754 C   0  0  0  0  0  0  0  0  0  0  0  0
    4.6200   -2.7718    1.6971 C   0  0  0  0  0  0  0  0  0  0  0  0
    3.8428   -3.2968    0.6569 C   0  0  0  0  0  0  0  0  0  0  0  0
    3.4238   -4.7287    0.7049 C   0  0  0  0  0  0  0  0  0  0  0  0
    3.1083   -5.2406    1.8597 N   0  0  0  0  0  0  0  0  0  0  0  0
    2.6344   -6.5263    1.8527 C   0  0  0  0  0  0  0  0  0  0  0  0
    2.0055   -6.9329    3.0571 C   0  0  0  0  0  0  0  0  0  0  0  0
    2.6075   -7.5089    4.1545 C   0  0  0  0  0  0  0  0  0  0  0  0
    1.5928   -7.7383    5.0491 N   0  0  0  0  0  0  0  0  0  0  0  0
    0.3983   -7.7887    4.3632 C   0  0  0  0  0  0  0  0  0  0  0  0
   -0.8193   -8.4182    4.6312 C   0  0  0  0  0  0  0  0  0  0  0  0
   -1.8700   -8.1651    3.7384 C   0  0  0  0  0  0  0  0  0  0  0  0
   -1.7428   -7.2282    2.7121 C   0  0  0  0  0  0  0  0  0  0  0  0
   -0.5122   -6.6244    2.4528 C   0  0  0  0  0  0  0  0  0  0  0  0
    0.5963   -7.0114    3.2282 C   0  0  0  0  0  0  0  0  0  0  0  0
    2.5761   -7.3053    0.7592 C   0  0  0  0  0  0  0  0  0  0  0  0
    2.9628   -6.8198   -0.4619 N   0  0  0  0  0  0  0  0  0  0  0  0
    3.3783   -5.5268   -0.6154 C   0  0  0  0  0  0  0  0  0  0  0  0
    3.6744   -5.0607   -1.6983 O   0  0  0  0  0  0  0  0  0  0  0  0
    3.3859   -2.4720   -0.3676 C   0  0  0  0  0  0  0  0  0  0  0  0
    3.7548   -1.1286   -0.3953 C   0  0  0  0  0  0  0  0  0  0  0  0
    3.3364   -0.2710   -1.3863 O   0  0  0  0  0  0  0  0  0  0  0  0
    2.0971   -0.5992   -2.0064 C   0  0  0  0  0  0  0  0  0  0  0  0
    4.6121   -0.6089    0.5999 C   0  0  0  0  0  0  0  0  0  0  0  0
    4.9169    0.7249    0.4748 O   0  0  0  0  0  0  0  0  0  0  0  0
    6.2489    1.0919    0.8104 C   0  0  0  0  0  0  0  0  0  0  0  0
    6.5348   -0.9643    4.5582 H   0  0  0  0  0  0  0  0  0  0  0  0
    6.6181   -2.4778    3.6518 H   0  0  0  0  0  0  0  0  0  0  0  0
    5.0483   -1.8949    4.3350 H   0  0  0  0  0  0  0  0  0  0  0  0
    4.9071   -3.4360    2.5061 H   0  0  0  0  0  0  0  0  0  0  0  0
    3.6380   -7.7344    4.3862 H   0  0  0  0  0  0  0  0  0  0  0  0
    1.7040   -7.8862    6.0413 H   0  0  0  0  0  0  0  0  0  0  0  0
   -0.9282   -9.1294    5.4424 H   0  0  0  0  0  0  0  0  0  0  0  0
   -2.8084   -8.7034    3.8510 H   0  0  0  0  0  0  0  0  0  0  0  0
   -2.5909   -7.0011    2.0712 H   0  0  0  0  0  0  0  0  0  0  0  0
   -0.3955   -5.9288    1.6282 H   0  0  0  0  0  0  0  0  0  0  0  0
    2.1547   -8.3089    0.7834 H   0  0  0  0  0  0  0  0  0  0  0  0
    2.8704   -7.3918   -1.2907 H   0  0  0  0  0  0  0  0  0  0  0  0
    2.7480   -2.8889   -1.1364 H   0  0  0  0  0  0  0  0  0  0  0  0
    1.7776    0.2598   -2.6028 H   0  0  0  0  0  0  0  0  0  0  0  0
    1.3187   -0.7979   -1.2604 H   0  0  0  0  0  0  0  0  0  0  0  0
    2.2120   -1.4487   -2.6877 H   0  0  0  0  0  0  0  0  0  0  0  0
    6.4966    2.0017    0.2539 H   0  0  0  0  0  0  0  0  0  0  0  0
    6.9829    0.3262    0.5335 H   0  0  0  0  0  0  0  0  0  0  0  0
    6.3204    1.3421    1.8743 H   0  0  0  0  0  0  0  0  0  0  0  0
  1  2  1  0  0  0  0
  1 29  1  0  0  0  0
  1 30  1  0  0  0  0
  1 31  1  0  0  0  0
  2  3  1  0  0  0  0
  3  4  1  0  0  0  0
  3 26  2  0  0  0  0
  4  5  2  0  0  0  0
  4 32  1  0  0  0  0
  5  6  1  0  0  0  0
  5 22  1  0  0  0  0
  6  7  2  0  0  0  0
  6 20  1  0  0  0  0
  7  8  1  0  0  0  0
  8  9  1  0  0  0  0
  8 18  2  0  0  0  0
  9 10  2  0  0  0  0
  9 17  1  0  0  0  0
 10 11  1  0  0  0  0
 10 33  1  0  0  0  0
 11 12  1  0  0  0  0
 11 34  1  0  0  0  0
 12 13  1  0  0  0  0
 12 17  2  0  0  0  0
 13 14  2  0  0  0  0
 13 35  1  0  0  0  0
 14 15  1  0  0  0  0
 14 36  1  0  0  0  0
 15 16  2  0  0  0  0
 15 37  1  0  0  0  0
 16 17  1  0  0  0  0
 16 38  1  0  0  0  0
 18 19  1  0  0  0  0
 18 39  1  0  0  0  0
 19 20  1  0  0  0  0
 19 40  1  0  0  0  0
 20 21  2  0  0  0  0
 22 23  2  0  0  0  0
 22 41  1  0  0  0  0
 23 24  1  0  0  0  0
 23 26  1  0  0  0  0
 24 25  1  0  0  0  0
 25 42  1  0  0  0  0
 25 43  1  0  0  0  0
 25 44  1  0  0  0  0
 26 27  1  0  0  0  0
 27 28  1  0  0  0  0
 28 45  1  0  0  0  0
 28 46  1  0  0  0  0
 28 47  1  0  0  0  0
M  END
$$$$
