CHEMBL3694669
 OpenBabel04072215373D

 50 53  0  0  0  0  0  0  0  0999 V2000
    1.3794    0.6967    2.0506 N   0  0  0  0  0  0  0  0  0  0  0  0
    0.4823    0.4158    1.0030 C   0  0  0  0  0  0  0  0  0  0  0  0
   -0.0988   -0.7936    1.0753 N   0  0  0  0  0  0  0  0  0  0  0  0
   -0.9312   -1.1405    0.0626 C   0  0  0  0  0  0  0  0  0  0  0  0
   -1.6322   -2.4526    0.1298 C   0  0  0  0  0  0  0  0  0  0  0  0
   -2.5866   -2.8707   -0.9058 C   0  0  0  0  0  0  0  0  0  0  0  0
   -3.2640   -4.0228   -0.7799 C   0  0  0  0  0  0  0  0  0  0  0  0
   -3.0232   -4.8629    0.3107 N   0  0  0  0  0  0  0  0  0  0  0  0
   -3.5342   -6.1230    0.6420 C   0  0  0  0  0  0  0  0  0  0  0  0
   -4.4079   -6.9692   -0.1923 C   0  0  0  0  0  0  0  0  0  0  0  0
   -4.2723   -6.9274   -1.5852 C   0  0  0  0  0  0  0  0  0  0  0  0
   -5.0789   -7.6911   -2.4105 C   0  0  0  0  0  0  0  0  0  0  0  0
   -5.9835   -8.5822   -1.8531 C   0  0  0  0  0  0  0  0  0  0  0  0
   -6.0937   -8.7405   -0.4703 C   0  0  0  0  0  0  0  0  0  0  0  0
   -6.9353   -9.7392    0.1036 N   0  0  0  0  0  0  0  0  0  0  0  0
   -7.6745  -10.6687   -0.6111 C   0  0  0  0  0  0  0  0  0  0  0  0
   -7.7287  -10.7794   -1.8296 O   0  0  0  0  0  0  0  0  0  0  0  0
   -8.4482  -11.4877    0.1735 N   0  0  0  0  0  0  0  0  0  0  0  0
   -9.2697  -12.5052   -0.5077 C   0  0  0  0  0  0  0  0  0  0  0  0
   -8.5728  -13.8230   -0.8850 C   0  0  0  0  0  0  0  0  0  0  0  0
   -7.3013  -13.8843   -0.4302 F   0  0  0  0  0  0  0  0  0  0  0  0
   -9.2382  -14.8686   -0.3293 F   0  0  0  0  0  0  0  0  0  0  0  0
   -8.5532  -14.0310   -2.2190 F   0  0  0  0  0  0  0  0  0  0  0  0
   -5.3244   -7.8971    0.3611 C   0  0  0  0  0  0  0  0  0  0  0  0
   -2.9459   -6.4015    1.8667 C   0  0  0  0  0  0  0  0  0  0  0  0
   -2.0849   -5.4148    2.2699 N   0  0  0  0  0  0  0  0  0  0  0  0
   -2.1242   -4.5120    1.3166 C   0  0  0  0  0  0  0  0  0  0  0  0
   -1.4238   -3.2744    1.1881 C   0  0  0  0  0  0  0  0  0  0  0  0
   -1.1950   -0.3557   -0.9964 N   0  0  0  0  0  0  0  0  0  0  0  0
   -0.6059    0.8551   -1.0161 C   0  0  0  0  0  0  0  0  0  0  0  0
    0.2517    1.3074   -0.0308 C   0  0  0  0  0  0  0  0  0  0  0  0
    0.7988    2.6673   -0.1395 C   0  0  0  0  0  0  0  0  0  0  0  0
    0.5860    3.3684   -1.1185 O   0  0  0  0  0  0  0  0  0  0  0  0
    1.5437    3.0862    0.9059 O   0  0  0  0  0  0  0  0  0  0  0  0
    1.2971   -0.0992    2.6920 H   0  0  0  0  0  0  0  0  0  0  0  0
    2.3383    0.6964    1.6948 H   0  0  0  0  0  0  0  0  0  0  0  0
   -2.7451   -2.2244   -1.7648 H   0  0  0  0  0  0  0  0  0  0  0  0
   -3.9977   -4.3169   -1.5163 H   0  0  0  0  0  0  0  0  0  0  0  0
   -3.5153   -6.3168   -2.0658 H   0  0  0  0  0  0  0  0  0  0  0  0
   -4.9841   -7.6224   -3.4898 H   0  0  0  0  0  0  0  0  0  0  0  0
   -6.5691   -9.1605   -2.5567 H   0  0  0  0  0  0  0  0  0  0  0  0
   -6.9513   -9.8030    1.1108 H   0  0  0  0  0  0  0  0  0  0  0  0
   -8.1635  -11.6628    1.1250 H   0  0  0  0  0  0  0  0  0  0  0  0
   -9.6822  -12.0631   -1.4234 H   0  0  0  0  0  0  0  0  0  0  0  0
  -10.1204  -12.7096    0.1488 H   0  0  0  0  0  0  0  0  0  0  0  0
   -5.4212   -7.9701    1.4420 H   0  0  0  0  0  0  0  0  0  0  0  0
   -3.0698   -7.2948    2.4645 H   0  0  0  0  0  0  0  0  0  0  0  0
   -0.7373   -3.0216    1.9896 H   0  0  0  0  0  0  0  0  0  0  0  0
   -0.8588    1.4738   -1.8726 H   0  0  0  0  0  0  0  0  0  0  0  0
    1.5003    2.4835    1.6839 H   0  0  0  0  0  0  0  0  0  0  0  0
  1  2  1  0  0  0  0
  1 35  1  0  0  0  0
  1 36  1  0  0  0  0
  2  3  1  0  0  0  0
  2 31  2  0  0  0  0
  3  4  2  0  0  0  0
  4  5  1  0  0  0  0
  4 29  1  0  0  0  0
  5  6  1  0  0  0  0
  5 28  2  0  0  0  0
  6  7  2  0  0  0  0
  6 37  1  0  0  0  0
  7  8  1  0  0  0  0
  7 38  1  0  0  0  0
  8  9  1  0  0  0  0
  8 27  1  0  0  0  0
  9 10  1  0  0  0  0
  9 25  2  0  0  0  0
 10 11  1  0  0  0  0
 10 24  2  0  0  0  0
 11 12  2  0  0  0  0
 11 39  1  0  0  0  0
 12 13  1  0  0  0  0
 12 40  1  0  0  0  0
 13 14  2  0  0  0  0
 13 41  1  0  0  0  0
 14 15  1  0  0  0  0
 14 24  1  0  0  0  0
 15 16  1  0  0  0  0
 15 42  1  0  0  0  0
 16 17  2  0  0  0  0
 16 18  1  0  0  0  0
 18 19  1  0  0  0  0
 18 43  1  0  0  0  0
 19 20  1  0  0  0  0
 19 44  1  0  0  0  0
 19 45  1  0  0  0  0
 20 21  1  0  0  0  0
 20 22  1  0  0  0  0
 20 23  1  0  0  0  0
 24 46  1  0  0  0  0
 25 26  1  0  0  0  0
 25 47  1  0  0  0  0
 26 27  2  0  0  0  0
 27 28  1  0  0  0  0
 28 48  1  0  0  0  0
 29 30  2  0  0  0  0
 30 31  1  0  0  0  0
 30 49  1  0  0  0  0
 31 32  1  0  0  0  0
 32 33  2  0  0  0  0
 32 34  1  0  0  0  0
 34 50  1  0  0  0  0
M  END
$$$$
