CHEMBL2010876
 OpenBabel04072215363D

 66 72  0  0  0  0  0  0  0  0999 V2000
    3.4640    0.3212   -1.5486 C   0  0  0  0  0  0  0  0  0  0  0  0
    2.9870    1.1462   -0.3536 C   0  0  0  0  0  0  0  0  0  0  0  0
    1.4515    1.1496   -0.3231 C   0  0  0  0  0  0  0  0  0  0  0  0
    3.5708    0.6516    1.0008 C   0  0  0  0  0  0  0  0  0  0  0  0
    5.0178    0.7866    1.1610 N   0  0  0  0  0  0  0  0  0  0  0  0
    5.6994    2.0258    1.0845 C   0  0  0  0  0  0  0  0  0  0  0  0
    5.2310    3.3467    0.9712 C   0  0  0  0  0  0  0  0  0  0  0  0
    6.1683    4.3757    0.7375 C   0  0  0  0  0  0  0  0  0  0  0  0
    7.5421    4.1411    0.7052 C   0  0  0  0  0  0  0  0  0  0  0  0
    8.5043    5.1147    0.4161 N   0  0  0  0  0  0  0  0  0  0  0  0
    8.4633    6.2715   -0.3499 C   0  0  0  0  0  0  0  0  0  0  0  0
    9.6368    6.9070   -0.4936 N   0  0  0  0  0  0  0  0  0  0  0  0
    9.6518    8.0116   -1.2562 C   0  0  0  0  0  0  0  0  0  0  0  0
    8.5420    8.5069   -1.8932 C   0  0  0  0  0  0  0  0  0  0  0  0
    7.3707    7.7996   -1.7030 C   0  0  0  0  0  0  0  0  0  0  0  0
    6.0802    8.2671   -2.3467 C   0  0  0  0  0  0  0  0  0  0  0  0
    6.2143    9.4508   -3.0172 F   0  0  0  0  0  0  0  0  0  0  0  0
    5.5860    7.3862   -3.2618 F   0  0  0  0  0  0  0  0  0  0  0  0
    5.0813    8.4753   -1.4423 F   0  0  0  0  0  0  0  0  0  0  0  0
    7.3332    6.6803   -0.9360 N   0  0  0  0  0  0  0  0  0  0  0  0
    7.9850    2.8278    0.8700 C   0  0  0  0  0  0  0  0  0  0  0  0
    7.0743    1.7690    1.0102 C   0  0  0  0  0  0  0  0  0  0  0  0
    7.1230    0.3887    0.9848 C   0  0  0  0  0  0  0  0  0  0  0  0
    8.2381   -0.3211    0.4990 C   0  0  0  0  0  0  0  0  0  0  0  0
    7.9525   -1.6144    0.0240 C   0  0  0  0  0  0  0  0  0  0  0  0
    6.7108   -2.2570    0.1771 C   0  0  0  0  0  0  0  0  0  0  0  0
    5.9043   -1.6767    1.2160 C   0  0  0  0  0  0  0  0  0  0  0  0
    5.9429   -0.2648    1.2173 C   0  0  0  0  0  0  0  0  0  0  0  0
    5.9620   -2.5443    2.5498 C   0  0  0  0  0  0  0  0  0  0  0  0
    7.0283   -3.7190    2.5272 C   0  0  0  0  0  0  0  0  0  0  0  0
    6.8179   -4.4563    1.2529 C   0  0  0  0  0  0  0  0  0  0  0  0
    6.4428   -5.7254    1.1015 N   0  0  0  0  0  0  0  0  0  0  0  0
    5.9562   -5.7380   -0.1655 N   0  0  0  0  0  0  0  0  0  0  0  0
    5.2884   -6.9175   -0.6599 C   0  0  0  0  0  0  0  0  0  0  0  0
    5.9507   -4.5004   -0.7644 C   0  0  0  0  0  0  0  0  0  0  0  0
    6.6630   -3.6945    0.0843 C   0  0  0  0  0  0  0  0  0  0  0  0
    9.1940   -2.1596   -0.4720 C   0  0  0  0  0  0  0  0  0  0  0  0
    9.5023   -3.2304   -0.9811 O   0  0  0  0  0  0  0  0  0  0  0  0
   10.1336   -1.1636   -0.2227 N   0  0  0  0  0  0  0  0  0  0  0  0
    9.6220    0.0637    0.3307 C   0  0  0  0  0  0  0  0  0  0  0  0
    3.0862    0.7518   -2.4826 H   0  0  0  0  0  0  0  0  0  0  0  0
    3.1030   -0.7104   -1.4909 H   0  0  0  0  0  0  0  0  0  0  0  0
    4.5564    0.3053   -1.6129 H   0  0  0  0  0  0  0  0  0  0  0  0
    3.2955    2.1805   -0.5338 H   0  0  0  0  0  0  0  0  0  0  0  0
    1.0476    0.1335   -0.2660 H   0  0  0  0  0  0  0  0  0  0  0  0
    1.0497    1.6162   -1.2306 H   0  0  0  0  0  0  0  0  0  0  0  0
    1.0724    1.7188    0.5320 H   0  0  0  0  0  0  0  0  0  0  0  0
    3.3054   -0.3969    1.1696 H   0  0  0  0  0  0  0  0  0  0  0  0
    3.1327    1.2338    1.8211 H   0  0  0  0  0  0  0  0  0  0  0  0
    4.1745    3.5851    0.9854 H   0  0  0  0  0  0  0  0  0  0  0  0
    5.7891    5.3847    0.5882 H   0  0  0  0  0  0  0  0  0  0  0  0
    9.4656    4.8951    0.6306 H   0  0  0  0  0  0  0  0  0  0  0  0
   10.6180    8.5054   -1.3409 H   0  0  0  0  0  0  0  0  0  0  0  0
    8.5920    9.4020   -2.5006 H   0  0  0  0  0  0  0  0  0  0  0  0
    9.0495    2.6233    0.8299 H   0  0  0  0  0  0  0  0  0  0  0  0
    4.9705   -2.9838    2.7031 H   0  0  0  0  0  0  0  0  0  0  0  0
    6.1948   -1.8934    3.4004 H   0  0  0  0  0  0  0  0  0  0  0  0
    6.9508   -4.3710    3.4009 H   0  0  0  0  0  0  0  0  0  0  0  0
    8.0461   -3.2976    2.5252 H   0  0  0  0  0  0  0  0  0  0  0  0
    5.5152   -7.7649   -0.0078 H   0  0  0  0  0  0  0  0  0  0  0  0
    5.6420   -7.1200   -1.6735 H   0  0  0  0  0  0  0  0  0  0  0  0
    4.2125   -6.7234   -0.6598 H   0  0  0  0  0  0  0  0  0  0  0  0
    5.4008   -4.3086   -1.6756 H   0  0  0  0  0  0  0  0  0  0  0  0
   11.1071   -1.3421   -0.4392 H   0  0  0  0  0  0  0  0  0  0  0  0
    9.7672    0.8589   -0.4045 H   0  0  0  0  0  0  0  0  0  0  0  0
   10.1263    0.2802    1.2763 H   0  0  0  0  0  0  0  0  0  0  0  0
  1  2  1  0  0  0  0
  1 41  1  0  0  0  0
  1 42  1  0  0  0  0
  1 43  1  0  0  0  0
  2  3  1  0  0  0  0
  2  4  1  0  0  0  0
  2 44  1  0  0  0  0
  3 45  1  0  0  0  0
  3 46  1  0  0  0  0
  3 47  1  0  0  0  0
  4  5  1  0  0  0  0
  4 48  1  0  0  0  0
  4 49  1  0  0  0  0
  5  6  1  0  0  0  0
  5 28  1  0  0  0  0
  6  7  1  0  0  0  0
  6 22  2  0  0  0  0
  7  8  2  0  0  0  0
  7 50  1  0  0  0  0
  8  9  1  0  0  0  0
  8 51  1  0  0  0  0
  9 10  1  0  0  0  0
  9 21  2  0  0  0  0
 10 11  1  0  0  0  0
 10 52  1  0  0  0  0
 11 12  1  0  0  0  0
 11 20  2  0  0  0  0
 12 13  2  0  0  0  0
 13 14  1  0  0  0  0
 13 53  1  0  0  0  0
 14 15  2  0  0  0  0
 14 54  1  0  0  0  0
 15 16  1  0  0  0  0
 15 20  1  0  0  0  0
 16 17  1  0  0  0  0
 16 18  1  0  0  0  0
 16 19  1  0  0  0  0
 21 22  1  0  0  0  0
 21 55  1  0  0  0  0
 22 23  1  0  0  0  0
 23 24  1  0  0  0  0
 23 28  2  0  0  0  0
 24 25  2  0  0  0  0
 24 40  1  0  0  0  0
 25 26  1  0  0  0  0
 25 37  1  0  0  0  0
 26 27  2  0  0  0  0
 26 36  1  0  0  0  0
 27 28  1  0  0  0  0
 27 29  1  0  0  0  0
 29 30  1  0  0  0  0
 29 56  1  0  0  0  0
 29 57  1  0  0  0  0
 30 31  1  0  0  0  0
 30 58  1  0  0  0  0
 30 59  1  0  0  0  0
 31 32  2  0  0  0  0
 31 36  1  0  0  0  0
 32 33  1  0  0  0  0
 33 34  1  0  0  0  0
 33 35  1  0  0  0  0
 34 60  1  0  0  0  0
 34 61  1  0  0  0  0
 34 62  1  0  0  0  0
 35 36  2  0  0  0  0
 35 63  1  0  0  0  0
 37 38  2  0  0  0  0
 37 39  1  0  0  0  0
 39 40  1  0  0  0  0
 39 64  1  0  0  0  0
 40 65  1  0  0  0  0
 40 66  1  0  0  0  0
M  END
$$$$
