CHEMBL1085733
 OpenBabel04072215363D

 70 75  0  0  0  0  0  0  0  0999 V2000
    1.4049   -1.0676   -2.1512 C   0  0  0  0  0  0  0  0  0  0  0  0
    0.6076   -0.2427   -1.2528 N   0  0  0  0  0  0  0  0  0  0  0  0
   -0.6621    0.1669   -1.8956 C   0  0  0  0  0  0  0  0  0  0  0  0
   -1.5125    1.0604   -0.9658 C   0  0  0  0  0  0  0  0  0  0  0  0
   -1.7643    0.3611    0.3039 N   0  0  0  0  0  0  0  0  0  0  0  0
   -2.9990    0.3419    0.9144 C   0  0  0  0  0  0  0  0  0  0  0  0
   -4.1867    0.3292    0.1700 C   0  0  0  0  0  0  0  0  0  0  0  0
   -5.4468    0.2420    0.7756 C   0  0  0  0  0  0  0  0  0  0  0  0
   -5.5620    0.1678    2.1630 C   0  0  0  0  0  0  0  0  0  0  0  0
   -6.8718    0.0915    2.7881 C   0  0  0  0  0  0  0  0  0  0  0  0
   -8.0951   -0.4006    2.2890 C   0  0  0  0  0  0  0  0  0  0  0  0
   -9.1061   -0.2845    3.1506 N   0  0  0  0  0  0  0  0  0  0  0  0
   -8.5366    0.2825    4.2555 N   0  0  0  0  0  0  0  0  0  0  0  0
   -9.1901    0.6172    5.4723 C   0  0  0  0  0  0  0  0  0  0  0  0
  -10.5332    0.2609    5.5927 N   0  0  0  0  0  0  0  0  0  0  0  0
   -8.4714    1.2625    6.4161 C   0  0  0  0  0  0  0  0  0  0  0  0
   -8.9896    1.6913    7.7091 C   0  0  0  0  0  0  0  0  0  0  0  0
   -9.0647    0.7718    8.7517 C   0  0  0  0  0  0  0  0  0  0  0  0
   -9.4865    1.1854   10.0110 C   0  0  0  0  0  0  0  0  0  0  0  0
   -9.8440    2.5145   10.2649 C   0  0  0  0  0  0  0  0  0  0  0  0
  -10.2678    2.9732   11.5348 N   0  0  0  0  0  0  0  0  0  0  0  0
  -10.3748    2.1853   12.6704 C   0  0  0  0  0  0  0  0  0  0  0  0
  -10.0596    1.0086   12.7421 O   0  0  0  0  0  0  0  0  0  0  0  0
  -10.9056    2.7952   13.9165 C   0  0  0  0  0  0  0  0  0  0  0  0
  -11.7481    3.9074   13.9411 C   0  0  0  0  0  0  0  0  0  0  0  0
  -12.2924    4.3325   15.1602 C   0  0  0  0  0  0  0  0  0  0  0  0
  -12.0022    3.6528   16.3583 C   0  0  0  0  0  0  0  0  0  0  0  0
  -12.5913    4.0781   17.6796 C   0  0  0  0  0  0  0  0  0  0  0  0
  -13.3691    5.1930   17.5933 F   0  0  0  0  0  0  0  0  0  0  0  0
  -13.3761    3.1144   18.2341 F   0  0  0  0  0  0  0  0  0  0  0  0
  -11.6334    4.3606   18.6055 F   0  0  0  0  0  0  0  0  0  0  0  0
  -11.1532    2.5411   16.3197 C   0  0  0  0  0  0  0  0  0  0  0  0
  -10.6069    2.1249   15.1087 C   0  0  0  0  0  0  0  0  0  0  0  0
   -9.7731    3.4353    9.2075 C   0  0  0  0  0  0  0  0  0  0  0  0
   -9.3558    3.0220    7.9349 C   0  0  0  0  0  0  0  0  0  0  0  0
   -7.0318    1.4936    6.1030 C   0  0  0  0  0  0  0  0  0  0  0  0
   -6.4188    1.1768    5.0081 N   0  0  0  0  0  0  0  0  0  0  0  0
   -7.1794    0.5593    4.0525 C   0  0  0  0  0  0  0  0  0  0  0  0
   -4.3891    0.1721    2.9203 C   0  0  0  0  0  0  0  0  0  0  0  0
   -3.1372    0.2737    2.3055 C   0  0  0  0  0  0  0  0  0  0  0  0
   -0.5531   -0.1336    0.9775 C   0  0  0  0  0  0  0  0  0  0  0  0
    0.2898   -0.9762   -0.0074 C   0  0  0  0  0  0  0  0  0  0  0  0
    1.6646   -0.5029   -3.0531 H   0  0  0  0  0  0  0  0  0  0  0  0
    0.8850   -1.9839   -2.4524 H   0  0  0  0  0  0  0  0  0  0  0  0
    2.3497   -1.3465   -1.6719 H   0  0  0  0  0  0  0  0  0  0  0  0
   -1.2513   -0.7177   -2.1753 H   0  0  0  0  0  0  0  0  0  0  0  0
   -0.4503    0.7250   -2.8149 H   0  0  0  0  0  0  0  0  0  0  0  0
   -2.4263    1.3441   -1.4961 H   0  0  0  0  0  0  0  0  0  0  0  0
   -0.9765    1.9961   -0.7602 H   0  0  0  0  0  0  0  0  0  0  0  0
   -4.1591    0.3443   -0.9148 H   0  0  0  0  0  0  0  0  0  0  0  0
   -6.3252    0.2350    0.1367 H   0  0  0  0  0  0  0  0  0  0  0  0
   -8.2911   -0.8452    1.3219 H   0  0  0  0  0  0  0  0  0  0  0  0
  -10.9720    0.1117    4.6813 H   0  0  0  0  0  0  0  0  0  0  0  0
  -11.0721    0.8303    6.2377 H   0  0  0  0  0  0  0  0  0  0  0  0
   -8.7879   -0.2709    8.6027 H   0  0  0  0  0  0  0  0  0  0  0  0
   -9.5150    0.4196   10.7781 H   0  0  0  0  0  0  0  0  0  0  0  0
  -10.4700    3.9610   11.6092 H   0  0  0  0  0  0  0  0  0  0  0  0
  -12.0396    4.4283   13.0318 H   0  0  0  0  0  0  0  0  0  0  0  0
  -12.9656    5.1878   15.1743 H   0  0  0  0  0  0  0  0  0  0  0  0
  -10.9251    1.9814   17.2236 H   0  0  0  0  0  0  0  0  0  0  0  0
   -9.9600    1.2466   15.0983 H   0  0  0  0  0  0  0  0  0  0  0  0
  -10.0365    4.4775    9.3541 H   0  0  0  0  0  0  0  0  0  0  0  0
   -9.3089    3.7476    7.1253 H   0  0  0  0  0  0  0  0  0  0  0  0
   -6.4450    1.9753    6.9046 H   0  0  0  0  0  0  0  0  0  0  0  0
   -4.4197    0.0981    4.0043 H   0  0  0  0  0  0  0  0  0  0  0  0
   -2.2682    0.3161    2.9558 H   0  0  0  0  0  0  0  0  0  0  0  0
   -0.7885   -0.7855    1.8262 H   0  0  0  0  0  0  0  0  0  0  0  0
    0.0329    0.7126    1.3566 H   0  0  0  0  0  0  0  0  0  0  0  0
   -0.2641   -1.8964   -0.2422 H   0  0  0  0  0  0  0  0  0  0  0  0
    1.2156   -1.2734    0.4990 H   0  0  0  0  0  0  0  0  0  0  0  0
  1  2  1  0  0  0  0
  1 43  1  0  0  0  0
  1 44  1  0  0  0  0
  1 45  1  0  0  0  0
  2  3  1  0  0  0  0
  2 42  1  0  0  0  0
  3  4  1  0  0  0  0
  3 46  1  0  0  0  0
  3 47  1  0  0  0  0
  4  5  1  0  0  0  0
  4 48  1  0  0  0  0
  4 49  1  0  0  0  0
  5  6  1  0  0  0  0
  5 41  1  0  0  0  0
  6  7  1  0  0  0  0
  6 40  2  0  0  0  0
  7  8  2  0  0  0  0
  7 50  1  0  0  0  0
  8  9  1  0  0  0  0
  8 51  1  0  0  0  0
  9 10  1  0  0  0  0
  9 39  2  0  0  0  0
 10 11  1  0  0  0  0
 10 38  2  0  0  0  0
 11 12  2  0  0  0  0
 11 52  1  0  0  0  0
 12 13  1  0  0  0  0
 13 14  1  0  0  0  0
 13 38  1  0  0  0  0
 14 15  1  0  0  0  0
 14 16  2  0  0  0  0
 15 53  1  0  0  0  0
 15 54  1  0  0  0  0
 16 17  1  0  0  0  0
 16 36  1  0  0  0  0
 17 18  1  0  0  0  0
 17 35  2  0  0  0  0
 18 19  2  0  0  0  0
 18 55  1  0  0  0  0
 19 20  1  0  0  0  0
 19 56  1  0  0  0  0
 20 21  1  0  0  0  0
 20 34  2  0  0  0  0
 21 22  1  0  0  0  0
 21 57  1  0  0  0  0
 22 23  2  0  0  0  0
 22 24  1  0  0  0  0
 24 25  1  0  0  0  0
 24 33  2  0  0  0  0
 25 26  2  0  0  0  0
 25 58  1  0  0  0  0
 26 27  1  0  0  0  0
 26 59  1  0  0  0  0
 27 28  1  0  0  0  0
 27 32  2  0  0  0  0
 28 29  1  0  0  0  0
 28 30  1  0  0  0  0
 28 31  1  0  0  0  0
 32 33  1  0  0  0  0
 32 60  1  0  0  0  0
 33 61  1  0  0  0  0
 34 35  1  0  0  0  0
 34 62  1  0  0  0  0
 35 63  1  0  0  0  0
 36 37  2  0  0  0  0
 36 64  1  0  0  0  0
 37 38  1  0  0  0  0
 39 40  1  0  0  0  0
 39 65  1  0  0  0  0
 40 66  1  0  0  0  0
 41 42  1  0  0  0  0
 41 67  1  0  0  0  0
 41 68  1  0  0  0  0
 42 69  1  0  0  0  0
 42 70  1  0  0  0  0
M  END
$$$$
