CHEMBL3774951
 OpenBabel04072215373D

 40 42  0  0  0  0  0  0  0  0999 V2000
    2.3887    1.7197   -0.0578 C   0  0  0  0  0  0  0  0  0  0  0  0
    2.2216    0.3105    0.0987 O   0  0  0  0  0  0  0  0  0  0  0  0
    2.8617   -0.2380    1.1806 C   0  0  0  0  0  0  0  0  0  0  0  0
    3.9852    0.3561    1.7730 C   0  0  0  0  0  0  0  0  0  0  0  0
    4.5637   -0.1419    2.9252 C   0  0  0  0  0  0  0  0  0  0  0  0
    5.5848    0.5451    3.4480 N   0  0  0  0  0  0  0  0  0  0  0  0
    6.1299    0.0397    4.5595 C   0  0  0  0  0  0  0  0  0  0  0  0
    5.7758   -1.0978    5.1491 N   0  0  0  0  0  0  0  0  0  0  0  0
    4.7619   -1.7955    4.5985 C   0  0  0  0  0  0  0  0  0  0  0  0
    4.4881   -3.0915    5.1104 N   0  0  0  0  0  0  0  0  0  0  0  0
    5.4149   -3.8453    5.8680 C   0  0  0  0  0  0  0  0  0  0  0  0
    6.7698   -3.8476    5.4765 C   0  0  0  0  0  0  0  0  0  0  0  0
    7.7407   -4.4592    6.2547 C   0  0  0  0  0  0  0  0  0  0  0  0
    9.0569   -4.4275    5.8979 O   0  0  0  0  0  0  0  0  0  0  0  0
    7.3899   -5.1006    7.4290 C   0  0  0  0  0  0  0  0  0  0  0  0
    6.0465   -5.1601    7.8055 C   0  0  0  0  0  0  0  0  0  0  0  0
    5.0439   -4.5506    7.0269 C   0  0  0  0  0  0  0  0  0  0  0  0
    3.6105   -4.6713    7.4642 C   0  0  0  0  0  0  0  0  0  0  0  0
    4.0635   -1.3228    3.4797 C   0  0  0  0  0  0  0  0  0  0  0  0
    2.9518   -1.9506    2.8761 C   0  0  0  0  0  0  0  0  0  0  0  0
    2.3612   -1.4244    1.7264 C   0  0  0  0  0  0  0  0  0  0  0  0
    1.2588   -2.1153    1.3054 O   0  0  0  0  0  0  0  0  0  0  0  0
    1.1432   -2.3121   -0.0996 C   0  0  0  0  0  0  0  0  0  0  0  0
    1.5902    2.0868   -0.7071 H   0  0  0  0  0  0  0  0  0  0  0  0
    3.3471    1.9413   -0.5402 H   0  0  0  0  0  0  0  0  0  0  0  0
    2.3042    2.2499    0.8987 H   0  0  0  0  0  0  0  0  0  0  0  0
    4.4371    1.2478    1.3437 H   0  0  0  0  0  0  0  0  0  0  0  0
    6.9388    0.6012    5.0144 H   0  0  0  0  0  0  0  0  0  0  0  0
    3.5198   -3.1988    5.3777 H   0  0  0  0  0  0  0  0  0  0  0  0
    7.0530   -3.3391    4.5587 H   0  0  0  0  0  0  0  0  0  0  0  0
    9.1339   -3.8982    5.0850 H   0  0  0  0  0  0  0  0  0  0  0  0
    8.1581   -5.5497    8.0497 H   0  0  0  0  0  0  0  0  0  0  0  0
    5.7887   -5.6785    8.7248 H   0  0  0  0  0  0  0  0  0  0  0  0
    3.5223   -5.2232    8.4064 H   0  0  0  0  0  0  0  0  0  0  0  0
    3.0338   -5.2168    6.7098 H   0  0  0  0  0  0  0  0  0  0  0  0
    3.1674   -3.6828    7.6189 H   0  0  0  0  0  0  0  0  0  0  0  0
    2.5346   -2.8601    3.3017 H   0  0  0  0  0  0  0  0  0  0  0  0
    0.8208   -3.3477   -0.2577 H   0  0  0  0  0  0  0  0  0  0  0  0
    2.0808   -2.1758   -0.6473 H   0  0  0  0  0  0  0  0  0  0  0  0
    0.3626   -1.6562   -0.4951 H   0  0  0  0  0  0  0  0  0  0  0  0
  1  2  1  0  0  0  0
  1 24  1  0  0  0  0
  1 25  1  0  0  0  0
  1 26  1  0  0  0  0
  2  3  1  0  0  0  0
  3  4  1  0  0  0  0
  3 21  2  0  0  0  0
  4  5  2  0  0  0  0
  4 27  1  0  0  0  0
  5  6  1  0  0  0  0
  5 19  1  0  0  0  0
  6  7  2  0  0  0  0
  7  8  1  0  0  0  0
  7 28  1  0  0  0  0
  8  9  2  0  0  0  0
  9 10  1  0  0  0  0
  9 19  1  0  0  0  0
 10 11  1  0  0  0  0
 10 29  1  0  0  0  0
 11 12  1  0  0  0  0
 11 17  2  0  0  0  0
 12 13  2  0  0  0  0
 12 30  1  0  0  0  0
 13 14  1  0  0  0  0
 13 15  1  0  0  0  0
 14 31  1  0  0  0  0
 15 16  2  0  0  0  0
 15 32  1  0  0  0  0
 16 17  1  0  0  0  0
 16 33  1  0  0  0  0
 17 18  1  0  0  0  0
 18 34  1  0  0  0  0
 18 35  1  0  0  0  0
 18 36  1  0  0  0  0
 19 20  2  0  0  0  0
 20 21  1  0  0  0  0
 20 37  1  0  0  0  0
 21 22  1  0  0  0  0
 22 23  1  0  0  0  0
 23 38  1  0  0  0  0
 23 39  1  0  0  0  0
 23 40  1  0  0  0  0
M  END
$$$$
