CHEMBL4226907
 OpenBabel04072215383D

 48 51  0  0  0  0  0  0  0  0999 V2000
    1.2595    0.3073    0.4781 O   0  0  0  0  0  0  0  0  0  0  0  0
    2.3350   -0.0616    0.0077 C   0  0  0  0  0  0  0  0  0  0  0  0
    2.8544   -1.3348    0.1985 N   0  0  0  0  0  0  0  0  0  0  0  0
    2.1373   -2.2448    0.9250 N   0  0  0  0  0  0  0  0  0  0  0  0
    2.7144   -3.3862    1.1372 C   0  0  0  0  0  0  0  0  0  0  0  0
    2.0404   -4.4383    1.9338 C   0  0  0  0  0  0  0  0  0  0  0  0
    0.7933   -4.1429    2.5108 C   0  0  0  0  0  0  0  0  0  0  0  0
    0.1130   -5.1076    3.2537 C   0  0  0  0  0  0  0  0  0  0  0  0
    0.6795   -6.3640    3.4220 C   0  0  0  0  0  0  0  0  0  0  0  0
    0.0238   -7.2923    4.1293 F   0  0  0  0  0  0  0  0  0  0  0  0
    1.9153   -6.6740    2.8679 C   0  0  0  0  0  0  0  0  0  0  0  0
    2.6025   -5.7095    2.1220 C   0  0  0  0  0  0  0  0  0  0  0  0
    4.1340   -6.1633    1.4640 Cl  0  0  0  0  0  0  0  0  0  0  0  0
    3.1228    0.7857   -0.7642 N   0  0  0  0  0  0  0  0  0  0  0  0
    2.7347    2.1858   -0.9101 C   0  0  0  0  0  0  0  0  0  0  0  0
    3.8863    3.0848   -0.4711 C   0  0  0  0  0  0  0  0  0  0  0  0
    5.2057    2.6384   -1.0506 C   0  0  0  0  0  0  0  0  0  0  0  0
    6.2240    3.5174   -0.9577 N   0  0  0  0  0  0  0  0  0  0  0  0
    7.4081    3.0984   -1.4151 C   0  0  0  0  0  0  0  0  0  0  0  0
    7.6590    1.9073   -1.9670 N   0  0  0  0  0  0  0  0  0  0  0  0
    6.6306    1.0423   -2.0534 C   0  0  0  0  0  0  0  0  0  0  0  0
    6.8451   -0.2153   -2.6699 N   0  0  0  0  0  0  0  0  0  0  0  0
    8.0801   -0.9068   -2.6867 C   0  0  0  0  0  0  0  0  0  0  0  0
    8.3924   -1.7686   -3.7450 C   0  0  0  0  0  0  0  0  0  0  0  0
    9.5884   -2.4952   -3.7445 C   0  0  0  0  0  0  0  0  0  0  0  0
   10.4694   -2.3906   -2.6681 C   0  0  0  0  0  0  0  0  0  0  0  0
   10.1441   -1.5729   -1.5932 C   0  0  0  0  0  0  0  0  0  0  0  0
   11.3123   -1.4509   -0.1114 Br  0  0  0  0  0  0  0  0  0  0  0  0
    8.9560   -0.8458   -1.5928 C   0  0  0  0  0  0  0  0  0  0  0  0
    5.3635    1.3627   -1.5827 C   0  0  0  0  0  0  0  0  0  0  0  0
    4.2283    0.3826   -1.6271 C   0  0  0  0  0  0  0  0  0  0  0  0
    3.8588   -1.4431    0.2049 H   0  0  0  0  0  0  0  0  0  0  0  0
    3.7119   -3.6032    0.7202 H   0  0  0  0  0  0  0  0  0  0  0  0
    0.3430   -3.1581    2.3820 H   0  0  0  0  0  0  0  0  0  0  0  0
   -0.8527   -4.8837    3.6973 H   0  0  0  0  0  0  0  0  0  0  0  0
    2.3281   -7.6663    3.0232 H   0  0  0  0  0  0  0  0  0  0  0  0
    1.8373    2.4277   -0.3324 H   0  0  0  0  0  0  0  0  0  0  0  0
    2.4951    2.3521   -1.9683 H   0  0  0  0  0  0  0  0  0  0  0  0
    3.9754    3.0592    0.6219 H   0  0  0  0  0  0  0  0  0  0  0  0
    3.6819    4.1201   -0.7668 H   0  0  0  0  0  0  0  0  0  0  0  0
    8.2424    3.7861   -1.3341 H   0  0  0  0  0  0  0  0  0  0  0  0
    6.4016   -0.2102   -3.5855 H   0  0  0  0  0  0  0  0  0  0  0  0
    7.7177   -1.8759   -4.5913 H   0  0  0  0  0  0  0  0  0  0  0  0
    9.8302   -3.1427   -4.5819 H   0  0  0  0  0  0  0  0  0  0  0  0
   11.3992   -2.9590   -2.6756 H   0  0  0  0  0  0  0  0  0  0  0  0
    8.7120   -0.2235   -0.7368 H   0  0  0  0  0  0  0  0  0  0  0  0
    4.5819   -0.6178   -1.3736 H   0  0  0  0  0  0  0  0  0  0  0  0
    3.8325    0.3393   -2.6493 H   0  0  0  0  0  0  0  0  0  0  0  0
  1  2  2  0  0  0  0
  2  3  1  0  0  0  0
  2 14  1  0  0  0  0
  3  4  1  0  0  0  0
  3 32  1  0  0  0  0
  4  5  2  0  0  0  0
  5  6  1  0  0  0  0
  5 33  1  0  0  0  0
  6  7  1  0  0  0  0
  6 12  2  0  0  0  0
  7  8  2  0  0  0  0
  7 34  1  0  0  0  0
  8  9  1  0  0  0  0
  8 35  1  0  0  0  0
  9 10  1  0  0  0  0
  9 11  2  0  0  0  0
 11 12  1  0  0  0  0
 11 36  1  0  0  0  0
 12 13  1  0  0  0  0
 14 15  1  0  0  0  0
 14 31  1  0  0  0  0
 15 16  1  0  0  0  0
 15 37  1  0  0  0  0
 15 38  1  0  0  0  0
 16 17  1  0  0  0  0
 16 39  1  0  0  0  0
 16 40  1  0  0  0  0
 17 18  1  0  0  0  0
 17 30  2  0  0  0  0
 18 19  2  0  0  0  0
 19 20  1  0  0  0  0
 19 41  1  0  0  0  0
 20 21  2  0  0  0  0
 21 22  1  0  0  0  0
 21 30  1  0  0  0  0
 22 23  1  0  0  0  0
 22 42  1  0  0  0  0
 23 24  1  0  0  0  0
 23 29  2  0  0  0  0
 24 25  2  0  0  0  0
 24 43  1  0  0  0  0
 25 26  1  0  0  0  0
 25 44  1  0  0  0  0
 26 27  2  0  0  0  0
 26 45  1  0  0  0  0
 27 28  1  0  0  0  0
 27 29  1  0  0  0  0
 29 46  1  0  0  0  0
 30 31  1  0  0  0  0
 31 47  1  0  0  0  0
 31 48  1  0  0  0  0
M  END
$$$$
