CHEMBL3676386
 OpenBabel04072215373D

 55 57  0  0  0  0  0  0  0  0999 V2000
    3.3836   -3.7536   -1.5212 C   0  0  0  0  0  0  0  0  0  0  0  0
    3.4127   -2.4785   -1.9268 C   0  0  0  0  0  0  0  0  0  0  0  0
    3.6061   -1.3995   -0.9260 C   0  0  0  0  0  0  0  0  0  0  0  0
    3.1832   -1.4869    0.2249 O   0  0  0  0  0  0  0  0  0  0  0  0
    4.3346   -0.2920   -1.3166 N   0  0  0  0  0  0  0  0  0  0  0  0
    5.1598   -0.3043   -2.4565 C   0  0  0  0  0  0  0  0  0  0  0  0
    6.2765   -1.1388   -2.4544 C   0  0  0  0  0  0  0  0  0  0  0  0
    6.9613   -1.4233   -3.6573 C   0  0  0  0  0  0  0  0  0  0  0  0
    8.0483   -2.3037   -3.7644 C   0  0  0  0  0  0  0  0  0  0  0  0
    8.4640   -3.0214   -2.6219 N   0  0  0  0  0  0  0  0  0  0  0  0
    9.7654   -3.4500   -2.2907 C   0  0  0  0  0  0  0  0  0  0  0  0
   10.8976   -2.7494   -2.7194 C   0  0  0  0  0  0  0  0  0  0  0  0
   12.1595   -3.0468   -2.2009 C   0  0  0  0  0  0  0  0  0  0  0  0
   12.3104   -4.0611   -1.2511 C   0  0  0  0  0  0  0  0  0  0  0  0
   14.0399   -4.2980   -0.5029 Br  0  0  0  0  0  0  0  0  0  0  0  0
   11.2035   -4.8186   -0.8573 C   0  0  0  0  0  0  0  0  0  0  0  0
   11.3257   -6.1176    0.2769 Cl  0  0  0  0  0  0  0  0  0  0  0  0
    9.9448   -4.4997   -1.3754 C   0  0  0  0  0  0  0  0  0  0  0  0
    8.8588   -5.1901   -0.9817 F   0  0  0  0  0  0  0  0  0  0  0  0
    8.6814   -2.5214   -4.9297 N   0  0  0  0  0  0  0  0  0  0  0  0
    8.2000   -1.8825   -5.9992 C   0  0  0  0  0  0  0  0  0  0  0  0
    7.1637   -1.0390   -6.0146 N   0  0  0  0  0  0  0  0  0  0  0  0
    6.5609   -0.8062   -4.8488 C   0  0  0  0  0  0  0  0  0  0  0  0
    5.4817    0.0749   -4.8092 C   0  0  0  0  0  0  0  0  0  0  0  0
    4.7788    0.3565   -3.6277 C   0  0  0  0  0  0  0  0  0  0  0  0
    3.7413    1.2420   -3.7763 O   0  0  0  0  0  0  0  0  0  0  0  0
    3.4957    2.0874   -2.6486 C   0  0  0  0  0  0  0  0  0  0  0  0
    2.9812    3.4582   -3.1014 C   0  0  0  0  0  0  0  0  0  0  0  0
    2.7850    4.3234   -1.9404 N   0  0  0  0  0  0  0  0  0  0  0  0
    3.7335    5.1092   -1.3530 C   0  0  0  0  0  0  0  0  0  0  0  0
    5.0101    5.8508   -2.1203 S   0  0  0  0  0  0  0  0  0  0  0  0
    3.6132    5.2423    0.0023 N   0  0  0  0  0  0  0  0  0  0  0  0
    3.0160    4.2480    0.8785 C   0  0  0  0  0  0  0  0  0  0  0  0
    3.6566    4.2513    2.2540 C   0  0  0  0  0  0  0  0  0  0  0  0
    3.3107   -4.5649   -2.2375 H   0  0  0  0  0  0  0  0  0  0  0  0
    3.4501   -4.0146   -0.4679 H   0  0  0  0  0  0  0  0  0  0  0  0
    3.3675   -2.2223   -2.9782 H   0  0  0  0  0  0  0  0  0  0  0  0
    4.7126    0.1567   -0.4891 H   0  0  0  0  0  0  0  0  0  0  0  0
    6.5861   -1.6168   -1.5274 H   0  0  0  0  0  0  0  0  0  0  0  0
    7.7408   -3.6613   -2.3002 H   0  0  0  0  0  0  0  0  0  0  0  0
   10.8012   -1.9318   -3.4301 H   0  0  0  0  0  0  0  0  0  0  0  0
   13.0126   -2.4539   -2.5248 H   0  0  0  0  0  0  0  0  0  0  0  0
    8.6929   -2.0696   -6.9464 H   0  0  0  0  0  0  0  0  0  0  0  0
    5.1610    0.5489   -5.7378 H   0  0  0  0  0  0  0  0  0  0  0  0
    4.4026    2.2430   -2.0504 H   0  0  0  0  0  0  0  0  0  0  0  0
    2.7290    1.6187   -2.0194 H   0  0  0  0  0  0  0  0  0  0  0  0
    2.0170    3.3563   -3.6100 H   0  0  0  0  0  0  0  0  0  0  0  0
    3.6791    3.9065   -3.8152 H   0  0  0  0  0  0  0  0  0  0  0  0
    1.9230    4.2046   -1.4245 H   0  0  0  0  0  0  0  0  0  0  0  0
    4.2990    5.8706    0.4083 H   0  0  0  0  0  0  0  0  0  0  0  0
    3.1409    3.2574    0.4260 H   0  0  0  0  0  0  0  0  0  0  0  0
    1.9456    4.4618    0.9511 H   0  0  0  0  0  0  0  0  0  0  0  0
    4.7314    4.0503    2.1839 H   0  0  0  0  0  0  0  0  0  0  0  0
    3.2060    3.4779    2.8837 H   0  0  0  0  0  0  0  0  0  0  0  0
    3.5285    5.2193    2.7478 H   0  0  0  0  0  0  0  0  0  0  0  0
  1  2  2  0  0  0  0
  1 35  1  0  0  0  0
  1 36  1  0  0  0  0
  2  3  1  0  0  0  0
  2 37  1  0  0  0  0
  3  4  2  0  0  0  0
  3  5  1  0  0  0  0
  5  6  1  0  0  0  0
  5 38  1  0  0  0  0
  6  7  1  0  0  0  0
  6 25  2  0  0  0  0
  7  8  2  0  0  0  0
  7 39  1  0  0  0  0
  8  9  1  0  0  0  0
  8 23  1  0  0  0  0
  9 10  1  0  0  0  0
  9 20  2  0  0  0  0
 10 11  1  0  0  0  0
 10 40  1  0  0  0  0
 11 12  1  0  0  0  0
 11 18  2  0  0  0  0
 12 13  2  0  0  0  0
 12 41  1  0  0  0  0
 13 14  1  0  0  0  0
 13 42  1  0  0  0  0
 14 15  1  0  0  0  0
 14 16  2  0  0  0  0
 16 17  1  0  0  0  0
 16 18  1  0  0  0  0
 18 19  1  0  0  0  0
 20 21  1  0  0  0  0
 21 22  2  0  0  0  0
 21 43  1  0  0  0  0
 22 23  1  0  0  0  0
 23 24  2  0  0  0  0
 24 25  1  0  0  0  0
 24 44  1  0  0  0  0
 25 26  1  0  0  0  0
 26 27  1  0  0  0  0
 27 28  1  0  0  0  0
 27 45  1  0  0  0  0
 27 46  1  0  0  0  0
 28 29  1  0  0  0  0
 28 47  1  0  0  0  0
 28 48  1  0  0  0  0
 29 30  1  0  0  0  0
 29 49  1  0  0  0  0
 30 31  2  0  0  0  0
 30 32  1  0  0  0  0
 32 33  1  0  0  0  0
 32 50  1  0  0  0  0
 33 34  1  0  0  0  0
 33 51  1  0  0  0  0
 33 52  1  0  0  0  0
 34 53  1  0  0  0  0
 34 54  1  0  0  0  0
 34 55  1  0  0  0  0
M  END
$$$$
