CHEMBL4527824
 OpenBabel04072215383D

 42 46  0  0  1  0  0  0  0  0999 V2000
    1.1856    0.9979    0.2998 N   0  0  0  0  0  0  0  0  0  0  0  0
    2.4995    0.6616    0.4798 C   0  0  0  0  0  0  0  0  0  0  0  0
    2.8055    0.0517    1.4999 O   0  0  0  0  0  0  0  0  0  0  0  0
    3.3752    0.9963   -0.6344 C   0  0  0  0  0  0  0  0  0  0  0  0
    4.4619    0.2292   -1.2100 C   0  0  0  0  0  0  0  0  0  0  0  0
    5.0811   -1.0566   -0.7905 C   0  0  0  0  0  0  0  0  0  0  0  0
    5.0679   -1.4760    0.5414 C   0  0  0  0  0  0  0  0  0  0  0  0
    5.4694   -2.7530    0.9448 C   0  0  0  0  0  0  0  0  0  0  0  0
    6.0372   -3.5953   -0.0106 C   0  0  0  0  0  0  0  0  0  0  0  0
    6.6398   -5.1966    0.1777 S   0  0  0  0  0  0  0  0  0  0  0  0
    7.1483   -5.1796   -1.4549 C   0  0  0  0  0  0  0  0  0  0  0  0
    6.8599   -4.1003   -2.1473 N   0  0  0  0  0  0  0  0  0  0  0  0
    6.2057   -3.1811   -1.3338 C   0  0  0  0  0  0  0  0  0  0  0  0
    5.7098   -1.9080   -1.7227 C   0  0  0  0  0  0  0  0  0  0  0  0
    4.8465    0.8030   -2.3636 N   0  0  0  0  0  0  0  0  0  0  0  0
    4.0695    1.8933   -2.5063 N   0  0  0  0  0  0  0  0  0  0  0  0
    3.2801    2.1586   -1.4083 C   0  0  0  0  0  0  0  0  0  0  0  0
    2.5919    3.3246   -1.1603 N   0  0  0  0  0  0  0  0  0  0  0  0
    2.0441    4.2801   -2.1257 C   0  0  1  0  0  0  0  0  0  0  0  0
    2.9347    4.7046   -3.2859 C   0  0  0  0  0  0  0  0  0  0  0  0
    2.9308    3.4562   -4.1608 C   0  0  2  0  0  0  0  0  0  0  0  0
    1.5144    2.8351   -3.9537 C   0  0  0  0  0  0  0  0  0  0  0  0
    0.8433    3.6957   -2.8709 C   0  0  2  0  0  0  0  0  0  0  0  0
    0.0750    4.7280   -3.5050 O   0  0  0  0  0  0  0  0  0  0  0  0
    4.1557    2.6262   -3.7459 C   0  0  0  0  0  0  0  0  0  0  0  0
    0.5445    0.5415    0.9384 H   0  0  0  0  0  0  0  0  0  0  0  0
    0.8537    1.2069   -0.6313 H   0  0  0  0  0  0  0  0  0  0  0  0
    4.7525   -0.8021    1.3307 H   0  0  0  0  0  0  0  0  0  0  0  0
    5.3438   -3.0715    1.9729 H   0  0  0  0  0  0  0  0  0  0  0  0
    7.6872   -6.0156   -1.8818 H   0  0  0  0  0  0  0  0  0  0  0  0
    5.8363   -1.6035   -2.7583 H   0  0  0  0  0  0  0  0  0  0  0  0
    2.0677    3.3392   -0.2827 H   0  0  0  0  0  0  0  0  0  0  0  0
    1.7636    5.1881   -1.5668 H   0  0  0  0  0  0  0  0  0  0  0  0
    3.9220    5.0578   -2.9907 H   0  0  0  0  0  0  0  0  0  0  0  0
    2.4624    5.5206   -3.8512 H   0  0  0  0  0  0  0  0  0  0  0  0
    3.0528    3.7280   -5.2186 H   0  0  0  0  0  0  0  0  0  0  0  0
    1.5681    1.7909   -3.6301 H   0  0  0  0  0  0  0  0  0  0  0  0
    0.9334    2.8669   -4.8807 H   0  0  0  0  0  0  0  0  0  0  0  0
    0.1660    3.1371   -2.2216 H   0  0  0  0  0  0  0  0  0  0  0  0
    0.0108    5.4973   -2.9096 H   0  0  0  0  0  0  0  0  0  0  0  0
    5.0311    3.2836   -3.6293 H   0  0  0  0  0  0  0  0  0  0  0  0
    4.4071    1.9097   -4.5382 H   0  0  0  0  0  0  0  0  0  0  0  0
  1  2  1  0  0  0  0
  1 26  1  0  0  0  0
  1 27  1  0  0  0  0
  2  3  2  0  0  0  0
  2  4  1  0  0  0  0
  4  5  1  0  0  0  0
  4 17  2  0  0  0  0
  5  6  1  0  0  0  0
  5 15  2  0  0  0  0
  6  7  1  0  0  0  0
  6 14  2  0  0  0  0
  7  8  2  0  0  0  0
  7 28  1  0  0  0  0
  8  9  1  0  0  0  0
  8 29  1  0  0  0  0
  9 10  1  0  0  0  0
  9 13  2  0  0  0  0
 10 11  1  0  0  0  0
 11 12  2  0  0  0  0
 11 30  1  0  0  0  0
 12 13  1  0  0  0  0
 13 14  1  0  0  0  0
 14 31  1  0  0  0  0
 15 16  1  0  0  0  0
 16 17  1  0  0  0  0
 16 25  1  0  0  0  0
 17 18  1  0  0  0  0
 18 19  1  0  0  0  0
 18 32  1  0  0  0  0
 19 20  1  0  0  0  0
 19 23  1  0  0  0  0
 19 33  1  1  0  0  0
 20 21  1  0  0  0  0
 20 34  1  0  0  0  0
 20 35  1  0  0  0  0
 21 22  1  0  0  0  0
 21 25  1  0  0  0  0
 21 36  1  6  0  0  0
 22 23  1  0  0  0  0
 22 37  1  0  0  0  0
 22 38  1  0  0  0  0
 23 24  1  0  0  0  0
 23 39  1  1  0  0  0
 24 40  1  0  0  0  0
 25 41  1  0  0  0  0
 25 42  1  0  0  0  0
M  END
$$$$
