CHEMBL4579615
 OpenBabel04072215383D

 53 57  0  0  0  0  0  0  0  0999 V2000
    1.2821    0.7659    0.2545 O   0  0  0  0  0  0  0  0  0  0  0  0
    2.3402    0.1755    0.0830 C   0  0  0  0  0  0  0  0  0  0  0  0
    2.8809   -0.1080   -1.1599 N   0  0  0  0  0  0  0  0  0  0  0  0
    2.2886    0.1988   -2.4065 C   0  0  0  0  0  0  0  0  0  0  0  0
    1.2026    1.0659   -2.5659 C   0  0  0  0  0  0  0  0  0  0  0  0
    0.6231    1.2770   -3.8247 C   0  0  0  0  0  0  0  0  0  0  0  0
    1.1413    0.6518   -4.9573 C   0  0  0  0  0  0  0  0  0  0  0  0
    0.5275    0.8247   -6.2176 N   0  0  0  0  0  0  0  0  0  0  0  0
    1.2044    0.7920   -7.4537 C   0  0  0  0  0  0  0  0  0  0  0  0
    2.5349    1.0583   -7.4783 N   0  0  0  0  0  0  0  0  0  0  0  0
    3.1975    1.0074   -8.6360 C   0  0  0  0  0  0  0  0  0  0  0  0
    2.7024    0.7072   -9.8318 N   0  0  0  0  0  0  0  0  0  0  0  0
    1.3845    0.4531   -9.7918 C   0  0  0  0  0  0  0  0  0  0  0  0
    0.5635    0.0225  -11.2205 S   0  0  0  0  0  0  0  0  0  0  0  0
   -0.9102   -0.1249  -10.3946 C   0  0  0  0  0  0  0  0  0  0  0  0
   -0.7985    0.1622   -9.0447 C   0  0  0  0  0  0  0  0  0  0  0  0
    0.5586    0.4917   -8.6733 C   0  0  0  0  0  0  0  0  0  0  0  0
   -2.0142    0.0624   -8.1667 C   0  0  0  0  0  0  0  0  0  0  0  0
   -3.3093    0.0456   -9.0145 C   0  0  0  0  0  0  0  0  0  0  0  0
   -3.2259   -0.8933  -10.1455 N   0  0  0  0  0  0  0  0  0  0  0  0
   -2.1792   -0.4907  -11.1018 C   0  0  0  0  0  0  0  0  0  0  0  0
    2.2265   -0.2198   -4.7883 C   0  0  0  0  0  0  0  0  0  0  0  0
    2.8099   -0.4288   -3.5354 C   0  0  0  0  0  0  0  0  0  0  0  0
    3.1294   -0.3263    1.1089 N   0  0  0  0  0  0  0  0  0  0  0  0
    2.8088   -0.3224    2.4855 C   0  0  0  0  0  0  0  0  0  0  0  0
    1.6044    0.1551    2.9980 C   0  0  0  0  0  0  0  0  0  0  0  0
    1.3560    0.1411    4.3708 C   0  0  0  0  0  0  0  0  0  0  0  0
    2.2990   -0.3723    5.2614 C   0  0  0  0  0  0  0  0  0  0  0  0
    1.8833   -0.3126    6.9328 Cl  0  0  0  0  0  0  0  0  0  0  0  0
    3.5025   -0.8936    4.7785 C   0  0  0  0  0  0  0  0  0  0  0  0
    4.5586   -1.5298    5.6424 C   0  0  0  0  0  0  0  0  0  0  0  0
    4.3223   -1.5595    6.9783 F   0  0  0  0  0  0  0  0  0  0  0  0
    4.7765   -2.8293    5.2837 F   0  0  0  0  0  0  0  0  0  0  0  0
    5.7673   -0.9124    5.4986 F   0  0  0  0  0  0  0  0  0  0  0  0
    3.7468   -0.8480    3.3818 C   0  0  0  0  0  0  0  0  0  0  0  0
    3.6683   -0.7367   -1.1883 H   0  0  0  0  0  0  0  0  0  0  0  0
    0.7737    1.6041   -1.7272 H   0  0  0  0  0  0  0  0  0  0  0  0
   -0.2301    1.9459   -3.8957 H   0  0  0  0  0  0  0  0  0  0  0  0
   -0.1726    1.5561   -6.2267 H   0  0  0  0  0  0  0  0  0  0  0  0
    4.2581    1.2337   -8.5883 H   0  0  0  0  0  0  0  0  0  0  0  0
   -2.0583    0.9067   -7.4711 H   0  0  0  0  0  0  0  0  0  0  0  0
   -1.9514   -0.8605   -7.5770 H   0  0  0  0  0  0  0  0  0  0  0  0
   -3.5255    1.0539   -9.3917 H   0  0  0  0  0  0  0  0  0  0  0  0
   -4.1508   -0.2403   -8.3741 H   0  0  0  0  0  0  0  0  0  0  0  0
   -4.1180   -0.9213  -10.6367 H   0  0  0  0  0  0  0  0  0  0  0  0
   -2.5271    0.3694  -11.6867 H   0  0  0  0  0  0  0  0  0  0  0  0
   -2.0077   -1.3204  -11.7965 H   0  0  0  0  0  0  0  0  0  0  0  0
    2.6284   -0.7606   -5.6416 H   0  0  0  0  0  0  0  0  0  0  0  0
    3.6517   -1.1112   -3.4668 H   0  0  0  0  0  0  0  0  0  0  0  0
    4.0403   -0.6762    0.8537 H   0  0  0  0  0  0  0  0  0  0  0  0
    0.8198    0.5527    2.3625 H   0  0  0  0  0  0  0  0  0  0  0  0
    0.4079    0.5363    4.7322 H   0  0  0  0  0  0  0  0  0  0  0  0
    4.6900   -1.2460    3.0070 H   0  0  0  0  0  0  0  0  0  0  0  0
  1  2  2  0  0  0  0
  2  3  1  0  0  0  0
  2 24  1  0  0  0  0
  3  4  1  0  0  0  0
  3 36  1  0  0  0  0
  4  5  1  0  0  0  0
  4 23  2  0  0  0  0
  5  6  2  0  0  0  0
  5 37  1  0  0  0  0
  6  7  1  0  0  0  0
  6 38  1  0  0  0  0
  7  8  1  0  0  0  0
  7 22  2  0  0  0  0
  8  9  1  0  0  0  0
  8 39  1  0  0  0  0
  9 10  1  0  0  0  0
  9 17  2  0  0  0  0
 10 11  2  0  0  0  0
 11 12  1  0  0  0  0
 11 40  1  0  0  0  0
 12 13  2  0  0  0  0
 13 14  1  0  0  0  0
 13 17  1  0  0  0  0
 14 15  1  0  0  0  0
 15 16  2  0  0  0  0
 15 21  1  0  0  0  0
 16 17  1  0  0  0  0
 16 18  1  0  0  0  0
 18 19  1  0  0  0  0
 18 41  1  0  0  0  0
 18 42  1  0  0  0  0
 19 20  1  0  0  0  0
 19 43  1  0  0  0  0
 19 44  1  0  0  0  0
 20 21  1  0  0  0  0
 20 45  1  0  0  0  0
 21 46  1  0  0  0  0
 21 47  1  0  0  0  0
 22 23  1  0  0  0  0
 22 48  1  0  0  0  0
 23 49  1  0  0  0  0
 24 25  1  0  0  0  0
 24 50  1  0  0  0  0
 25 26  1  0  0  0  0
 25 35  2  0  0  0  0
 26 27  2  0  0  0  0
 26 51  1  0  0  0  0
 27 28  1  0  0  0  0
 27 52  1  0  0  0  0
 28 29  1  0  0  0  0
 28 30  2  0  0  0  0
 30 31  1  0  0  0  0
 30 35  1  0  0  0  0
 31 32  1  0  0  0  0
 31 33  1  0  0  0  0
 31 34  1  0  0  0  0
 35 53  1  0  0  0  0
M  END
$$$$
