CHEMBL3128219
 OpenBabel04072215363D

 63 67  0  0  0  0  0  0  0  0999 V2000
    4.2364    2.0093   -1.4663 O   0  0  0  0  0  0  0  0  0  0  0  0
    4.9038    1.2829   -2.1910 C   0  0  0  0  0  0  0  0  0  0  0  0
    5.0452    1.5462   -3.5387 N   0  0  0  0  0  0  0  0  0  0  0  0
    4.2967    2.6354   -4.1331 C   0  0  0  0  0  0  0  0  0  0  0  0
    4.9820    3.1711   -5.3617 C   0  0  0  0  0  0  0  0  0  0  0  0
    4.7181    2.6296   -6.6273 C   0  0  0  0  0  0  0  0  0  0  0  0
    5.3509    3.1433   -7.7620 C   0  0  0  0  0  0  0  0  0  0  0  0
    6.2553    4.1971   -7.6427 C   0  0  0  0  0  0  0  0  0  0  0  0
    6.5349    4.7346   -6.3879 C   0  0  0  0  0  0  0  0  0  0  0  0
    5.9068    4.2200   -5.2523 C   0  0  0  0  0  0  0  0  0  0  0  0
    5.6029    0.1537   -1.8110 N   0  0  0  0  0  0  0  0  0  0  0  0
    5.6897   -0.3950   -0.5065 C   0  0  0  0  0  0  0  0  0  0  0  0
    5.0357    0.1564    0.5962 C   0  0  0  0  0  0  0  0  0  0  0  0
    5.2137   -0.3752    1.8745 C   0  0  0  0  0  0  0  0  0  0  0  0
    6.0083   -1.5028    2.0613 C   0  0  0  0  0  0  0  0  0  0  0  0
    6.6076   -2.1324    0.9623 C   0  0  0  0  0  0  0  0  0  0  0  0
    7.3920   -3.4156    1.1596 C   0  0  0  0  0  0  0  0  0  0  0  0
    8.7748   -3.0874    1.4474 N   0  0  0  0  0  0  0  0  0  0  0  0
    9.6533   -4.1540    1.6232 C   0  0  0  0  0  0  0  0  0  0  0  0
    9.4319   -5.3548    1.0281 N   0  0  0  0  0  0  0  0  0  0  0  0
   10.3460   -6.3395    1.1874 C   0  0  0  0  0  0  0  0  0  0  0  0
   11.4912   -6.3054    1.8885 N   0  0  0  0  0  0  0  0  0  0  0  0
   11.6835   -5.1088    2.4623 C   0  0  0  0  0  0  0  0  0  0  0  0
   10.8254   -4.0220    2.3804 C   0  0  0  0  0  0  0  0  0  0  0  0
   11.4497   -3.0248    3.1495 C   0  0  0  0  0  0  0  0  0  0  0  0
   12.6078   -3.4164    3.6809 N   0  0  0  0  0  0  0  0  0  0  0  0
   12.7514   -4.6883    3.2228 N   0  0  0  0  0  0  0  0  0  0  0  0
   13.9438   -5.4229    3.6123 C   0  0  0  0  0  0  0  0  0  0  0  0
   14.4331   -6.4597    2.6034 C   0  0  0  0  0  0  0  0  0  0  0  0
   15.7289   -7.1174    3.0151 C   0  0  0  0  0  0  0  0  0  0  0  0
   15.7185   -8.3094    3.7537 C   0  0  0  0  0  0  0  0  0  0  0  0
   16.9154   -8.9499    4.0795 C   0  0  0  0  0  0  0  0  0  0  0  0
   18.1319   -8.4010    3.6791 C   0  0  0  0  0  0  0  0  0  0  0  0
   18.1535   -7.2034    2.9667 C   0  0  0  0  0  0  0  0  0  0  0  0
   16.9582   -6.5607    2.6402 C   0  0  0  0  0  0  0  0  0  0  0  0
    6.4720   -1.5470   -0.3143 C   0  0  0  0  0  0  0  0  0  0  0  0
    5.2624    0.7710   -4.1434 H   0  0  0  0  0  0  0  0  0  0  0  0
    4.1449    3.4436   -3.4077 H   0  0  0  0  0  0  0  0  0  0  0  0
    3.3001    2.2545   -4.3869 H   0  0  0  0  0  0  0  0  0  0  0  0
    4.0083    1.8143   -6.7395 H   0  0  0  0  0  0  0  0  0  0  0  0
    5.1349    2.7233   -8.7411 H   0  0  0  0  0  0  0  0  0  0  0  0
    6.7423    4.5998   -8.5271 H   0  0  0  0  0  0  0  0  0  0  0  0
    7.2403    5.5564   -6.2928 H   0  0  0  0  0  0  0  0  0  0  0  0
    6.1349    4.6481   -4.2776 H   0  0  0  0  0  0  0  0  0  0  0  0
    6.1882   -0.2677   -2.5158 H   0  0  0  0  0  0  0  0  0  0  0  0
    4.3848    1.0198    0.5041 H   0  0  0  0  0  0  0  0  0  0  0  0
    4.7209    0.0969    2.7208 H   0  0  0  0  0  0  0  0  0  0  0  0
    6.1389   -1.8954    3.0670 H   0  0  0  0  0  0  0  0  0  0  0  0
    7.2938   -4.0385    0.2622 H   0  0  0  0  0  0  0  0  0  0  0  0
    6.9498   -3.9779    1.9934 H   0  0  0  0  0  0  0  0  0  0  0  0
    8.8808   -2.3737    2.1572 H   0  0  0  0  0  0  0  0  0  0  0  0
   10.1283   -7.2729    0.6785 H   0  0  0  0  0  0  0  0  0  0  0  0
   11.0971   -2.0179    3.3510 H   0  0  0  0  0  0  0  0  0  0  0  0
   13.7265   -5.8806    4.5844 H   0  0  0  0  0  0  0  0  0  0  0  0
   14.7308   -4.6731    3.7716 H   0  0  0  0  0  0  0  0  0  0  0  0
   14.5629   -5.9956    1.6173 H   0  0  0  0  0  0  0  0  0  0  0  0
   13.6878   -7.2503    2.4682 H   0  0  0  0  0  0  0  0  0  0  0  0
   14.7773   -8.7599    4.0620 H   0  0  0  0  0  0  0  0  0  0  0  0
   16.8986   -9.8839    4.6356 H   0  0  0  0  0  0  0  0  0  0  0  0
   19.0628   -8.9082    3.9185 H   0  0  0  0  0  0  0  0  0  0  0  0
   19.1023   -6.7749    2.6544 H   0  0  0  0  0  0  0  0  0  0  0  0
   16.9932   -5.6328    2.0736 H   0  0  0  0  0  0  0  0  0  0  0  0
    6.9786   -2.0129   -1.1565 H   0  0  0  0  0  0  0  0  0  0  0  0
  1  2  2  0  0  0  0
  2  3  1  0  0  0  0
  2 11  1  0  0  0  0
  3  4  1  0  0  0  0
  3 37  1  0  0  0  0
  4  5  1  0  0  0  0
  4 38  1  0  0  0  0
  4 39  1  0  0  0  0
  5  6  1  0  0  0  0
  5 10  2  0  0  0  0
  6  7  2  0  0  0  0
  6 40  1  0  0  0  0
  7  8  1  0  0  0  0
  7 41  1  0  0  0  0
  8  9  2  0  0  0  0
  8 42  1  0  0  0  0
  9 10  1  0  0  0  0
  9 43  1  0  0  0  0
 10 44  1  0  0  0  0
 11 12  1  0  0  0  0
 11 45  1  0  0  0  0
 12 13  1  0  0  0  0
 12 36  2  0  0  0  0
 13 14  2  0  0  0  0
 13 46  1  0  0  0  0
 14 15  1  0  0  0  0
 14 47  1  0  0  0  0
 15 16  2  0  0  0  0
 15 48  1  0  0  0  0
 16 17  1  0  0  0  0
 16 36  1  0  0  0  0
 17 18  1  0  0  0  0
 17 49  1  0  0  0  0
 17 50  1  0  0  0  0
 18 19  1  0  0  0  0
 18 51  1  0  0  0  0
 19 20  1  0  0  0  0
 19 24  2  0  0  0  0
 20 21  2  0  0  0  0
 21 22  1  0  0  0  0
 21 52  1  0  0  0  0
 22 23  2  0  0  0  0
 23 24  1  0  0  0  0
 23 27  1  0  0  0  0
 24 25  1  0  0  0  0
 25 26  2  0  0  0  0
 25 53  1  0  0  0  0
 26 27  1  0  0  0  0
 27 28  1  0  0  0  0
 28 29  1  0  0  0  0
 28 54  1  0  0  0  0
 28 55  1  0  0  0  0
 29 30  1  0  0  0  0
 29 56  1  0  0  0  0
 29 57  1  0  0  0  0
 30 31  1  0  0  0  0
 30 35  2  0  0  0  0
 31 32  2  0  0  0  0
 31 58  1  0  0  0  0
 32 33  1  0  0  0  0
 32 59  1  0  0  0  0
 33 34  2  0  0  0  0
 33 60  1  0  0  0  0
 34 35  1  0  0  0  0
 34 61  1  0  0  0  0
 35 62  1  0  0  0  0
 36 63  1  0  0  0  0
M  END
$$$$
