CHEMBL3220325
 OpenBabel04072215363D

 81 83  0  0  0  0  0  0  0  0999 V2000
    0.0778   -0.0848   -3.7512 C   0  0  0  0  0  0  0  0  0  0  0  0
    1.5997   -0.0280   -3.6445 C   0  0  0  0  0  0  0  0  0  0  0  0
    2.1595    1.3006   -3.3233 N   0  0  0  0  0  0  0  0  0  0  0  0
    1.5728    1.9083   -2.1171 C   0  0  0  0  0  0  0  0  0  0  0  0
    1.8825    1.2190   -0.7915 C   0  0  0  0  0  0  0  0  0  0  0  0
    3.6456    1.2325   -3.3300 C   0  0  0  0  0  0  0  0  0  0  0  0
    4.3570    2.5754   -3.0842 C   0  0  0  0  0  0  0  0  0  0  0  0
    5.7989    2.4630   -3.1575 O   0  0  0  0  0  0  0  0  0  0  0  0
    6.4641    3.6440   -2.8843 C   0  0  0  0  0  0  0  0  0  0  0  0
    5.9180    4.6524   -2.1014 C   0  0  0  0  0  0  0  0  0  0  0  0
    6.6040    5.8397   -1.9160 C   0  0  0  0  0  0  0  0  0  0  0  0
    7.8709    6.0656   -2.4847 C   0  0  0  0  0  0  0  0  0  0  0  0
    8.4392    7.4192   -2.1564 C   0  0  0  0  0  0  0  0  0  0  0  0
    8.4683    5.0515   -3.2687 C   0  0  0  0  0  0  0  0  0  0  0  0
    9.7456    5.1368   -3.9246 N   0  0  0  0  0  0  0  0  0  0  0  0
   10.4398    6.2749   -4.2858 C   0  0  0  0  0  0  0  0  0  0  0  0
   10.0261    7.4328   -4.1802 O   0  0  0  0  0  0  0  0  0  0  0  0
   11.6891    6.0309   -4.8585 N   0  0  0  0  0  0  0  0  0  0  0  0
   12.5357    7.1587   -5.1122 C   0  0  0  0  0  0  0  0  0  0  0  0
   12.8567    8.0438   -4.0766 C   0  0  0  0  0  0  0  0  0  0  0  0
   13.5629    9.2295   -4.3168 C   0  0  0  0  0  0  0  0  0  0  0  0
   13.9021   10.1067   -3.3194 O   0  0  0  0  0  0  0  0  0  0  0  0
   13.5957    9.7698   -1.9741 C   0  0  0  0  0  0  0  0  0  0  0  0
   13.9302    9.5550   -5.6416 C   0  0  0  0  0  0  0  0  0  0  0  0
   14.4669   10.7545   -6.0500 O   0  0  0  0  0  0  0  0  0  0  0  0
   14.8872   11.7396   -5.1175 C   0  0  0  0  0  0  0  0  0  0  0  0
   13.6986    8.6196   -6.7029 C   0  0  0  0  0  0  0  0  0  0  0  0
   14.1579    8.8701   -8.1060 C   0  0  0  0  0  0  0  0  0  0  0  0
   13.4247    8.4782   -9.2210 C   0  0  0  0  0  0  0  0  0  0  0  0
   13.9089    8.7147  -10.5164 C   0  0  0  0  0  0  0  0  0  0  0  0
   15.1343    9.3847  -10.7847 C   0  0  0  0  0  0  0  0  0  0  0  0
   15.3972    9.5162  -12.2660 C   0  0  0  0  0  0  0  0  0  0  0  0
   16.7957    9.4300  -12.8151 C   0  0  0  0  0  0  0  0  0  0  0  0
   14.3606    9.6127  -13.0637 N   0  0  0  0  0  0  0  0  0  0  0  0
   14.7211    9.6079  -14.4151 O   0  0  0  0  0  0  0  0  0  0  0  0
   15.8922    9.7885   -9.6807 C   0  0  0  0  0  0  0  0  0  0  0  0
   17.0695   10.4420   -9.5015 O   0  0  0  0  0  0  0  0  0  0  0  0
   17.8612   11.0655  -10.4790 C   0  0  0  0  0  0  0  0  0  0  0  0
   15.3872    9.4964   -8.3836 C   0  0  0  0  0  0  0  0  0  0  0  0
   13.0047    7.4215   -6.4001 C   0  0  0  0  0  0  0  0  0  0  0  0
    7.7563    3.8275   -3.4184 C   0  0  0  0  0  0  0  0  0  0  0  0
   -0.2297   -1.0310   -4.2059 H   0  0  0  0  0  0  0  0  0  0  0  0
   -0.3139    0.7276   -4.3742 H   0  0  0  0  0  0  0  0  0  0  0  0
   -0.4006   -0.0351   -2.7667 H   0  0  0  0  0  0  0  0  0  0  0  0
    1.9986   -0.3399   -4.6181 H   0  0  0  0  0  0  0  0  0  0  0  0
    1.9281   -0.7782   -2.9152 H   0  0  0  0  0  0  0  0  0  0  0  0
    0.4839    1.9763   -2.2304 H   0  0  0  0  0  0  0  0  0  0  0  0
    1.8799    2.9591   -2.0480 H   0  0  0  0  0  0  0  0  0  0  0  0
    1.7155    0.1395   -0.8371 H   0  0  0  0  0  0  0  0  0  0  0  0
    1.2296    1.6155   -0.0060 H   0  0  0  0  0  0  0  0  0  0  0  0
    2.9169    1.3972   -0.4830 H   0  0  0  0  0  0  0  0  0  0  0  0
    3.9789    0.8593   -4.3069 H   0  0  0  0  0  0  0  0  0  0  0  0
    4.0007    0.5020   -2.5919 H   0  0  0  0  0  0  0  0  0  0  0  0
    4.0717    2.8921   -2.0793 H   0  0  0  0  0  0  0  0  0  0  0  0
    4.0217    3.3097   -3.8270 H   0  0  0  0  0  0  0  0  0  0  0  0
    4.9581    4.5703   -1.6069 H   0  0  0  0  0  0  0  0  0  0  0  0
    6.1319    6.6112   -1.3089 H   0  0  0  0  0  0  0  0  0  0  0  0
    7.9174    7.8797   -1.3093 H   0  0  0  0  0  0  0  0  0  0  0  0
    8.2819    8.1031   -2.9958 H   0  0  0  0  0  0  0  0  0  0  0  0
    9.4863    7.3508   -1.8539 H   0  0  0  0  0  0  0  0  0  0  0  0
   10.1116    4.2664   -4.2873 H   0  0  0  0  0  0  0  0  0  0  0  0
   11.6558    5.3365   -5.5915 H   0  0  0  0  0  0  0  0  0  0  0  0
   12.5134    7.7943   -3.0764 H   0  0  0  0  0  0  0  0  0  0  0  0
   14.0273   10.5458   -1.3333 H   0  0  0  0  0  0  0  0  0  0  0  0
   14.0502    8.8168   -1.6855 H   0  0  0  0  0  0  0  0  0  0  0  0
   12.5143    9.7657   -1.8112 H   0  0  0  0  0  0  0  0  0  0  0  0
   15.3101   12.5720   -5.6900 H   0  0  0  0  0  0  0  0  0  0  0  0
   15.6845   11.3582   -4.4725 H   0  0  0  0  0  0  0  0  0  0  0  0
   14.0460   12.1452   -4.5483 H   0  0  0  0  0  0  0  0  0  0  0  0
   12.4580    7.9922   -9.1156 H   0  0  0  0  0  0  0  0  0  0  0  0
   13.2920    8.3552  -11.3412 H   0  0  0  0  0  0  0  0  0  0  0  0
   17.4861    9.0108  -12.0867 H   0  0  0  0  0  0  0  0  0  0  0  0
   17.1137   10.4235  -13.1474 H   0  0  0  0  0  0  0  0  0  0  0  0
   16.8282    8.7577  -13.6799 H   0  0  0  0  0  0  0  0  0  0  0  0
   13.8604    9.4880  -14.8588 H   0  0  0  0  0  0  0  0  0  0  0  0
   18.5357   11.7509   -9.9506 H   0  0  0  0  0  0  0  0  0  0  0  0
   17.2845   11.6553  -11.1913 H   0  0  0  0  0  0  0  0  0  0  0  0
   18.5154   10.3317  -10.9516 H   0  0  0  0  0  0  0  0  0  0  0  0
   16.0090    9.8064   -7.5414 H   0  0  0  0  0  0  0  0  0  0  0  0
   12.7755    6.7177   -7.1969 H   0  0  0  0  0  0  0  0  0  0  0  0
    8.1819    3.0130   -4.0006 H   0  0  0  0  0  0  0  0  0  0  0  0
  1  2  1  0  0  0  0
  1 42  1  0  0  0  0
  1 43  1  0  0  0  0
  1 44  1  0  0  0  0
  2  3  1  0  0  0  0
  2 45  1  0  0  0  0
  2 46  1  0  0  0  0
  3  4  1  0  0  0  0
  3  6  1  0  0  0  0
  4  5  1  0  0  0  0
  4 47  1  0  0  0  0
  4 48  1  0  0  0  0
  5 49  1  0  0  0  0
  5 50  1  0  0  0  0
  5 51  1  0  0  0  0
  6  7  1  0  0  0  0
  6 52  1  0  0  0  0
  6 53  1  0  0  0  0
  7  8  1  0  0  0  0
  7 54  1  0  0  0  0
  7 55  1  0  0  0  0
  8  9  1  0  0  0  0
  9 10  1  0  0  0  0
  9 41  2  0  0  0  0
 10 11  2  0  0  0  0
 10 56  1  0  0  0  0
 11 12  1  0  0  0  0
 11 57  1  0  0  0  0
 12 13  1  0  0  0  0
 12 14  2  0  0  0  0
 13 58  1  0  0  0  0
 13 59  1  0  0  0  0
 13 60  1  0  0  0  0
 14 15  1  0  0  0  0
 14 41  1  0  0  0  0
 15 16  1  0  0  0  0
 15 61  1  0  0  0  0
 16 17  2  0  0  0  0
 16 18  1  0  0  0  0
 18 19  1  0  0  0  0
 18 62  1  0  0  0  0
 19 20  1  0  0  0  0
 19 40  2  0  0  0  0
 20 21  2  0  0  0  0
 20 63  1  0  0  0  0
 21 22  1  0  0  0  0
 21 24  1  0  0  0  0
 22 23  1  0  0  0  0
 23 64  1  0  0  0  0
 23 65  1  0  0  0  0
 23 66  1  0  0  0  0
 24 25  1  0  0  0  0
 24 27  2  0  0  0  0
 25 26  1  0  0  0  0
 26 67  1  0  0  0  0
 26 68  1  0  0  0  0
 26 69  1  0  0  0  0
 27 28  1  0  0  0  0
 27 40  1  0  0  0  0
 28 29  1  0  0  0  0
 28 39  2  0  0  0  0
 29 30  2  0  0  0  0
 29 70  1  0  0  0  0
 30 31  1  0  0  0  0
 30 71  1  0  0  0  0
 31 32  1  0  0  0  0
 31 36  2  0  0  0  0
 32 33  1  0  0  0  0
 32 34  2  0  0  0  0
 33 72  1  0  0  0  0
 33 73  1  0  0  0  0
 33 74  1  0  0  0  0
 34 35  1  0  0  0  0
 35 75  1  0  0  0  0
 36 37  1  0  0  0  0
 36 39  1  0  0  0  0
 37 38  1  0  0  0  0
 38 76  1  0  0  0  0
 38 77  1  0  0  0  0
 38 78  1  0  0  0  0
 39 79  1  0  0  0  0
 40 80  1  0  0  0  0
 41 81  1  0  0  0  0
M  END
$$$$
