CHEMBL1988778
 OpenBabel04072215363D

 46 49  0  0  0  0  0  0  0  0999 V2000
    3.3593    5.6096    1.8544 C   0  0  0  0  0  0  0  0  0  0  0  0
    1.9871    6.1186    1.5137 C   0  0  0  0  0  0  0  0  0  0  0  0
    1.7127    7.4859    1.6072 C   0  0  0  0  0  0  0  0  0  0  0  0
    0.4568    7.9641    1.2597 C   0  0  0  0  0  0  0  0  0  0  0  0
   -0.5383    7.0829    0.8350 C   0  0  0  0  0  0  0  0  0  0  0  0
   -1.6708    7.6502    0.4051 F   0  0  0  0  0  0  0  0  0  0  0  0
   -0.3219    5.6989    0.7877 C   0  0  0  0  0  0  0  0  0  0  0  0
   -1.3069    4.7266    0.4504 N   0  0  0  0  0  0  0  0  0  0  0  0
   -2.6789    4.9271    0.4226 C   0  0  0  0  0  0  0  0  0  0  0  0
   -3.2562    5.9750    0.6591 O   0  0  0  0  0  0  0  0  0  0  0  0
   -3.3719    3.7534    0.1456 N   0  0  0  0  0  0  0  0  0  0  0  0
   -4.7830    3.7628    0.0165 C   0  0  0  0  0  0  0  0  0  0  0  0
   -5.5280    2.7713    0.6471 C   0  0  0  0  0  0  0  0  0  0  0  0
   -6.9308    2.7858    0.5780 C   0  0  0  0  0  0  0  0  0  0  0  0
   -7.6368    3.7991   -0.0937 C   0  0  0  0  0  0  0  0  0  0  0  0
   -9.1204    3.8262   -0.1375 C   0  0  0  0  0  0  0  0  0  0  0  0
   -9.7938    4.1389   -1.3488 C   0  0  0  0  0  0  0  0  0  0  0  0
  -11.1835    4.1582   -1.4619 C   0  0  0  0  0  0  0  0  0  0  0  0
  -11.9840    3.8496   -0.3678 C   0  0  0  0  0  0  0  0  0  0  0  0
  -11.3369    3.5407    0.8261 C   0  0  0  0  0  0  0  0  0  0  0  0
  -11.8661    3.1929    2.0389 N   0  0  0  0  0  0  0  0  0  0  0  0
  -10.9616    2.9669    2.9920 N   0  0  0  0  0  0  0  0  0  0  0  0
   -9.7992    3.1801    2.3792 C   0  0  0  0  0  0  0  0  0  0  0  0
   -8.6514    3.0837    3.0677 N   0  0  0  0  0  0  0  0  0  0  0  0
   -9.9473    3.5258    0.9921 C   0  0  0  0  0  0  0  0  0  0  0  0
   -6.8492    4.7547   -0.7655 C   0  0  0  0  0  0  0  0  0  0  0  0
   -7.4287    5.7264   -1.4902 F   0  0  0  0  0  0  0  0  0  0  0  0
   -5.4508    4.7400   -0.7203 C   0  0  0  0  0  0  0  0  0  0  0  0
    0.9689    5.2320    1.1032 C   0  0  0  0  0  0  0  0  0  0  0  0
    4.0303    6.4314    2.1312 H   0  0  0  0  0  0  0  0  0  0  0  0
    3.8030    5.0996    0.9936 H   0  0  0  0  0  0  0  0  0  0  0  0
    3.3117    4.9208    2.7028 H   0  0  0  0  0  0  0  0  0  0  0  0
    2.4732    8.1948    1.9250 H   0  0  0  0  0  0  0  0  0  0  0  0
    0.2351    9.0258    1.2899 H   0  0  0  0  0  0  0  0  0  0  0  0
   -0.9835    3.7816    0.3119 H   0  0  0  0  0  0  0  0  0  0  0  0
   -2.9685    2.9231    0.5531 H   0  0  0  0  0  0  0  0  0  0  0  0
   -5.0447    2.0063    1.2478 H   0  0  0  0  0  0  0  0  0  0  0  0
   -7.4731    1.9874    1.0823 H   0  0  0  0  0  0  0  0  0  0  0  0
   -9.2164    4.3705   -2.2437 H   0  0  0  0  0  0  0  0  0  0  0  0
  -11.6427    4.4098   -2.4151 H   0  0  0  0  0  0  0  0  0  0  0  0
  -13.0674    3.8543   -0.4529 H   0  0  0  0  0  0  0  0  0  0  0  0
  -12.8465    3.0974    2.2768 H   0  0  0  0  0  0  0  0  0  0  0  0
   -8.7632    2.9951    4.0724 H   0  0  0  0  0  0  0  0  0  0  0  0
   -7.8730    3.6827    2.8151 H   0  0  0  0  0  0  0  0  0  0  0  0
   -4.9063    5.5059   -1.2672 H   0  0  0  0  0  0  0  0  0  0  0  0
    1.1941    4.1682    1.0562 H   0  0  0  0  0  0  0  0  0  0  0  0
  1  2  1  0  0  0  0
  1 30  1  0  0  0  0
  1 31  1  0  0  0  0
  1 32  1  0  0  0  0
  2  3  1  0  0  0  0
  2 29  2  0  0  0  0
  3  4  2  0  0  0  0
  3 33  1  0  0  0  0
  4  5  1  0  0  0  0
  4 34  1  0  0  0  0
  5  6  1  0  0  0  0
  5  7  2  0  0  0  0
  7  8  1  0  0  0  0
  7 29  1  0  0  0  0
  8  9  1  0  0  0  0
  8 35  1  0  0  0  0
  9 10  2  0  0  0  0
  9 11  1  0  0  0  0
 11 12  1  0  0  0  0
 11 36  1  0  0  0  0
 12 13  1  0  0  0  0
 12 28  2  0  0  0  0
 13 14  2  0  0  0  0
 13 37  1  0  0  0  0
 14 15  1  0  0  0  0
 14 38  1  0  0  0  0
 15 16  1  0  0  0  0
 15 26  2  0  0  0  0
 16 17  1  0  0  0  0
 16 25  2  0  0  0  0
 17 18  2  0  0  0  0
 17 39  1  0  0  0  0
 18 19  1  0  0  0  0
 18 40  1  0  0  0  0
 19 20  2  0  0  0  0
 19 41  1  0  0  0  0
 20 21  1  0  0  0  0
 20 25  1  0  0  0  0
 21 22  1  0  0  0  0
 21 42  1  0  0  0  0
 22 23  2  0  0  0  0
 23 24  1  0  0  0  0
 23 25  1  0  0  0  0
 24 43  1  0  0  0  0
 24 44  1  0  0  0  0
 26 27  1  0  0  0  0
 26 28  1  0  0  0  0
 28 45  1  0  0  0  0
 29 46  1  0  0  0  0
M  END
$$$$
