CHEMBL3900620
 OpenBabel04072215373D

 51 54  0  0  0  0  0  0  0  0999 V2000
    3.5195   -1.2065   -2.5206 C   0  0  0  0  0  0  0  0  0  0  0  0
    3.6209   -0.6658   -1.3385 C   0  0  0  0  0  0  0  0  0  0  0  0
    3.7392   -0.0355    0.0396 C   0  0  0  0  0  0  0  0  0  0  0  0
    4.4619    1.3529   -0.2254 N   0  0  0  0  0  0  0  0  0  0  0  0
    3.5835    2.4830   -0.2881 C   0  0  0  0  0  0  0  0  0  0  0  0
    3.8757    3.7157    0.3488 C   0  0  0  0  0  0  0  0  0  0  0  0
    2.9844    4.7948    0.3203 C   0  0  0  0  0  0  0  0  0  0  0  0
    3.1126    6.0207    0.9312 O   0  0  0  0  0  0  0  0  0  0  0  0
    4.2650    6.2373    1.7306 C   0  0  0  0  0  0  0  0  0  0  0  0
    1.7638    4.6909   -0.3719 C   0  0  0  0  0  0  0  0  0  0  0  0
    1.4635    3.5098   -1.0303 C   0  0  0  0  0  0  0  0  0  0  0  0
    0.3160    3.3103   -1.7548 O   0  0  0  0  0  0  0  0  0  0  0  0
   -0.1319    4.4582   -2.4744 C   0  0  0  0  0  0  0  0  0  0  0  0
    2.3402    2.4172   -0.9549 C   0  0  0  0  0  0  0  0  0  0  0  0
    5.8953    1.3337   -0.3471 C   0  0  0  0  0  0  0  0  0  0  0  0
    6.5527    0.2505    0.2089 C   0  0  0  0  0  0  0  0  0  0  0  0
    7.9039    0.2445    0.4293 C   0  0  0  0  0  0  0  0  0  0  0  0
    8.7284    1.2049   -0.0550 C   0  0  0  0  0  0  0  0  0  0  0  0
    9.9689    0.9827    0.3624 N   0  0  0  0  0  0  0  0  0  0  0  0
   10.9273    1.6636   -0.2425 C   0  0  0  0  0  0  0  0  0  0  0  0
   10.6711    2.5416   -1.2715 C   0  0  0  0  0  0  0  0  0  0  0  0
   11.8883    2.9479   -1.9955 C   0  0  0  0  0  0  0  0  0  0  0  0
   12.4724    2.4006   -3.1760 C   0  0  0  0  0  0  0  0  0  0  0  0
   13.7551    2.7545   -3.3499 N   0  0  0  0  0  0  0  0  0  0  0  0
   14.0229    3.5048   -2.2695 N   0  0  0  0  0  0  0  0  0  0  0  0
   15.2464    4.2706   -2.1822 C   0  0  0  0  0  0  0  0  0  0  0  0
   12.9980    3.5045   -1.3623 C   0  0  0  0  0  0  0  0  0  0  0  0
    9.3597    2.8738   -1.6117 N   0  0  0  0  0  0  0  0  0  0  0  0
    8.2846    2.2021   -0.9445 C   0  0  0  0  0  0  0  0  0  0  0  0
    6.7895    2.2956   -0.9771 C   0  0  0  0  0  0  0  0  0  0  0  0
    3.4416   -1.6387   -3.4916 H   0  0  0  0  0  0  0  0  0  0  0  0
    4.2287   -0.6598    0.7843 H   0  0  0  0  0  0  0  0  0  0  0  0
    2.7363    0.1541    0.4410 H   0  0  0  0  0  0  0  0  0  0  0  0
    4.8087    3.7976    0.9067 H   0  0  0  0  0  0  0  0  0  0  0  0
    4.2280    7.2664    2.1040 H   0  0  0  0  0  0  0  0  0  0  0  0
    5.1794    6.1305    1.1437 H   0  0  0  0  0  0  0  0  0  0  0  0
    4.2715    5.5754    2.6018 H   0  0  0  0  0  0  0  0  0  0  0  0
    1.0761    5.5302   -0.3636 H   0  0  0  0  0  0  0  0  0  0  0  0
   -0.7865    4.1128   -3.2811 H   0  0  0  0  0  0  0  0  0  0  0  0
    0.6998    5.0037   -2.9353 H   0  0  0  0  0  0  0  0  0  0  0  0
   -0.7172    5.1190   -1.8265 H   0  0  0  0  0  0  0  0  0  0  0  0
    2.0413    1.5119   -1.4755 H   0  0  0  0  0  0  0  0  0  0  0  0
    6.0545   -0.6331    0.5681 H   0  0  0  0  0  0  0  0  0  0  0  0
    8.3335   -0.5821    0.9895 H   0  0  0  0  0  0  0  0  0  0  0  0
   11.9300    1.4127    0.0896 H   0  0  0  0  0  0  0  0  0  0  0  0
   12.0414    1.7108   -3.8903 H   0  0  0  0  0  0  0  0  0  0  0  0
   15.8254    4.1608   -3.1035 H   0  0  0  0  0  0  0  0  0  0  0  0
   15.8353    3.9346   -1.3245 H   0  0  0  0  0  0  0  0  0  0  0  0
   14.9618    5.3191   -2.0565 H   0  0  0  0  0  0  0  0  0  0  0  0
   13.1506    3.8838   -0.3611 H   0  0  0  0  0  0  0  0  0  0  0  0
    6.3607    3.1118   -1.5561 H   0  0  0  0  0  0  0  0  0  0  0  0
  1  2  3  0  0  0  0
  1 31  1  0  0  0  0
  2  3  1  0  0  0  0
  3  4  1  0  0  0  0
  3 32  1  0  0  0  0
  3 33  1  0  0  0  0
  4  5  1  0  0  0  0
  4 15  1  0  0  0  0
  5  6  1  0  0  0  0
  5 14  2  0  0  0  0
  6  7  2  0  0  0  0
  6 34  1  0  0  0  0
  7  8  1  0  0  0  0
  7 10  1  0  0  0  0
  8  9  1  0  0  0  0
  9 35  1  0  0  0  0
  9 36  1  0  0  0  0
  9 37  1  0  0  0  0
 10 11  2  0  0  0  0
 10 38  1  0  0  0  0
 11 12  1  0  0  0  0
 11 14  1  0  0  0  0
 12 13  1  0  0  0  0
 13 39  1  0  0  0  0
 13 40  1  0  0  0  0
 13 41  1  0  0  0  0
 14 42  1  0  0  0  0
 15 16  1  0  0  0  0
 15 30  2  0  0  0  0
 16 17  2  0  0  0  0
 16 43  1  0  0  0  0
 17 18  1  0  0  0  0
 17 44  1  0  0  0  0
 18 19  1  0  0  0  0
 18 29  2  0  0  0  0
 19 20  2  0  0  0  0
 20 21  1  0  0  0  0
 20 45  1  0  0  0  0
 21 22  1  0  0  0  0
 21 28  2  0  0  0  0
 22 23  1  0  0  0  0
 22 27  2  0  0  0  0
 23 24  2  0  0  0  0
 23 46  1  0  0  0  0
 24 25  1  0  0  0  0
 25 26  1  0  0  0  0
 25 27  1  0  0  0  0
 26 47  1  0  0  0  0
 26 48  1  0  0  0  0
 26 49  1  0  0  0  0
 27 50  1  0  0  0  0
 28 29  1  0  0  0  0
 29 30  1  0  0  0  0
 30 51  1  0  0  0  0
M  END
$$$$
