CHEMBL4434704
 OpenBabel04072215383D

 61 66  0  0  0  0  0  0  0  0999 V2000
    1.1564   -0.0388    0.1884 C   0  0  0  0  0  0  0  0  0  0  0  0
    2.5556    0.0399   -0.0516 O   0  0  0  0  0  0  0  0  0  0  0  0
    3.2833    0.8394    0.7894 C   0  0  0  0  0  0  0  0  0  0  0  0
    4.6599    0.8932    0.4824 C   0  0  0  0  0  0  0  0  0  0  0  0
    5.5422    1.6676    1.2373 C   0  0  0  0  0  0  0  0  0  0  0  0
    5.0095    2.3709    2.2948 C   0  0  0  0  0  0  0  0  0  0  0  0
    3.6506    2.3251    2.6234 C   0  0  0  0  0  0  0  0  0  0  0  0
    2.7697    1.5653    1.8729 C   0  0  0  0  0  0  0  0  0  0  0  0
    3.4870    3.2060    3.7866 C   0  0  0  0  0  0  0  0  0  0  0  0
    2.3402    3.4800    4.4282 C   0  0  0  0  0  0  0  0  0  0  0  0
    2.2409    4.4563    5.5145 C   0  0  0  0  0  0  0  0  0  0  0  0
    1.9648    5.7879    5.1907 C   0  0  0  0  0  0  0  0  0  0  0  0
    1.9634    6.7852    6.1705 C   0  0  0  0  0  0  0  0  0  0  0  0
    2.2344    6.4365    7.5093 C   0  0  0  0  0  0  0  0  0  0  0  0
    2.3550    7.1297    8.7562 C   0  0  0  0  0  0  0  0  0  0  0  0
    2.1909    8.5552    9.0291 C   0  0  0  0  0  0  0  0  0  0  0  0
    2.9401    9.1841   10.0180 C   0  0  0  0  0  0  0  0  0  0  0  0
    2.7521   10.5424   10.2618 C   0  0  0  0  0  0  0  0  0  0  0  0
    1.8321   11.2733    9.5083 C   0  0  0  0  0  0  0  0  0  0  0  0
    1.7501   12.6394    9.7303 N   0  0  0  0  0  0  0  0  0  0  0  0
    1.2583   13.4831    8.6372 C   0  0  0  0  0  0  0  0  0  0  0  0
    1.7609   14.9245    8.9113 C   0  0  0  0  0  0  0  0  0  0  0  0
    1.3132   15.4551   10.2259 N   0  0  0  0  0  0  0  0  0  0  0  0
    1.9141   16.7640   10.4758 C   0  0  0  0  0  0  0  0  0  0  0  0
    1.6819   14.5065   11.3067 C   0  0  0  0  0  0  0  0  0  0  0  0
    1.2116   13.0575   11.0329 C   0  0  0  0  0  0  0  0  0  0  0  0
    1.1074   10.6847    8.5354 N   0  0  0  0  0  0  0  0  0  0  0  0
    1.2878    9.3519    8.3347 C   0  0  0  0  0  0  0  0  0  0  0  0
    2.6848    6.2784    9.7448 N   0  0  0  0  0  0  0  0  0  0  0  0
    2.7602    5.0818    9.1446 N   0  0  0  0  0  0  0  0  0  0  0  0
    2.4945    5.1033    7.8034 C   0  0  0  0  0  0  0  0  0  0  0  0
    2.4979    4.0835    6.8428 C   0  0  0  0  0  0  0  0  0  0  0  0
    4.8593    3.7663    4.1107 C   0  0  0  0  0  0  0  0  0  0  0  0
    5.1824    4.5255    4.9999 O   0  0  0  0  0  0  0  0  0  0  0  0
    5.6985    3.2078    3.1638 N   0  0  0  0  0  0  0  0  0  0  0  0
    0.7241   -0.7073   -0.5620 H   0  0  0  0  0  0  0  0  0  0  0  0
    0.6826    0.9419    0.0750 H   0  0  0  0  0  0  0  0  0  0  0  0
    0.9502   -0.4668    1.1750 H   0  0  0  0  0  0  0  0  0  0  0  0
    5.0384    0.3216   -0.3629 H   0  0  0  0  0  0  0  0  0  0  0  0
    6.5968    1.7115    0.9929 H   0  0  0  0  0  0  0  0  0  0  0  0
    1.7189    1.5513    2.1295 H   0  0  0  0  0  0  0  0  0  0  0  0
    1.3988    3.0321    4.1238 H   0  0  0  0  0  0  0  0  0  0  0  0
    1.7840    6.0728    4.1560 H   0  0  0  0  0  0  0  0  0  0  0  0
    1.7916    7.8161    5.8788 H   0  0  0  0  0  0  0  0  0  0  0  0
    3.6803    8.6330   10.5919 H   0  0  0  0  0  0  0  0  0  0  0  0
    3.3606   11.0431   11.0075 H   0  0  0  0  0  0  0  0  0  0  0  0
    0.1616   13.4659    8.5818 H   0  0  0  0  0  0  0  0  0  0  0  0
    1.6559   13.1564    7.6688 H   0  0  0  0  0  0  0  0  0  0  0  0
    1.4071   15.5814    8.1088 H   0  0  0  0  0  0  0  0  0  0  0  0
    2.8598   14.9162    8.8711 H   0  0  0  0  0  0  0  0  0  0  0  0
    1.6253   17.4743    9.6938 H   0  0  0  0  0  0  0  0  0  0  0  0
    3.0090   16.7196   10.5122 H   0  0  0  0  0  0  0  0  0  0  0  0
    1.5558   17.1744   11.4261 H   0  0  0  0  0  0  0  0  0  0  0  0
    1.2437   14.8431   12.2535 H   0  0  0  0  0  0  0  0  0  0  0  0
    2.7732   14.4904   11.4354 H   0  0  0  0  0  0  0  0  0  0  0  0
    0.1136   13.0138   11.0247 H   0  0  0  0  0  0  0  0  0  0  0  0
    1.5578   12.4164   11.8517 H   0  0  0  0  0  0  0  0  0  0  0  0
    0.6374    8.9372    7.5712 H   0  0  0  0  0  0  0  0  0  0  0  0
    3.0113    4.2791    9.7098 H   0  0  0  0  0  0  0  0  0  0  0  0
    2.7401    3.0595    7.1070 H   0  0  0  0  0  0  0  0  0  0  0  0
    6.6863    3.4063    3.1383 H   0  0  0  0  0  0  0  0  0  0  0  0
  1  2  1  0  0  0  0
  1 36  1  0  0  0  0
  1 37  1  0  0  0  0
  1 38  1  0  0  0  0
  2  3  1  0  0  0  0
  3  4  1  0  0  0  0
  3  8  2  0  0  0  0
  4  5  2  0  0  0  0
  4 39  1  0  0  0  0
  5  6  1  0  0  0  0
  5 40  1  0  0  0  0
  6  7  2  0  0  0  0
  6 35  1  0  0  0  0
  7  8  1  0  0  0  0
  7  9  1  0  0  0  0
  8 41  1  0  0  0  0
  9 10  2  3  0  0  0
  9 33  1  0  0  0  0
 10 11  1  0  0  0  0
 10 42  1  0  0  0  0
 11 12  1  0  0  0  0
 11 32  2  0  0  0  0
 12 13  2  0  0  0  0
 12 43  1  0  0  0  0
 13 14  1  0  0  0  0
 13 44  1  0  0  0  0
 14 15  1  0  0  0  0
 14 31  2  0  0  0  0
 15 16  1  0  0  0  0
 15 29  2  0  0  0  0
 16 17  1  0  0  0  0
 16 28  2  0  0  0  0
 17 18  2  0  0  0  0
 17 45  1  0  0  0  0
 18 19  1  0  0  0  0
 18 46  1  0  0  0  0
 19 20  1  0  0  0  0
 19 27  2  0  0  0  0
 20 21  1  0  0  0  0
 20 26  1  0  0  0  0
 21 22  1  0  0  0  0
 21 47  1  0  0  0  0
 21 48  1  0  0  0  0
 22 23  1  0  0  0  0
 22 49  1  0  0  0  0
 22 50  1  0  0  0  0
 23 24  1  0  0  0  0
 23 25  1  0  0  0  0
 24 51  1  0  0  0  0
 24 52  1  0  0  0  0
 24 53  1  0  0  0  0
 25 26  1  0  0  0  0
 25 54  1  0  0  0  0
 25 55  1  0  0  0  0
 26 56  1  0  0  0  0
 26 57  1  0  0  0  0
 27 28  1  0  0  0  0
 28 58  1  0  0  0  0
 29 30  1  0  0  0  0
 30 31  1  0  0  0  0
 30 59  1  0  0  0  0
 31 32  1  0  0  0  0
 32 60  1  0  0  0  0
 33 34  2  0  0  0  0
 33 35  1  0  0  0  0
 35 61  1  0  0  0  0
M  END
$$$$
