CHEMBL4291402
 OpenBabel04072215383D

 54 57  0  0  0  0  0  0  0  0999 V2000
    0.9687    0.0795   -0.2194 C   0  0  0  0  0  0  0  0  0  0  0  0
    2.2873   -0.1867    0.2362 O   0  0  0  0  0  0  0  0  0  0  0  0
    3.0173   -1.1532   -0.4249 C   0  0  0  0  0  0  0  0  0  0  0  0
    2.7156   -1.5379   -1.7443 C   0  0  0  0  0  0  0  0  0  0  0  0
    3.4725   -2.5039   -2.3957 C   0  0  0  0  0  0  0  0  0  0  0  0
    4.5689   -3.0584   -1.7625 C   0  0  0  0  0  0  0  0  0  0  0  0
    4.9240   -2.6493   -0.4621 C   0  0  0  0  0  0  0  0  0  0  0  0
    6.0266   -3.1832    0.1542 O   0  0  0  0  0  0  0  0  0  0  0  0
    7.1540   -3.4815   -0.6670 C   0  0  0  0  0  0  0  0  0  0  0  0
    8.4341   -3.2976    0.1189 C   0  0  0  0  0  0  0  0  0  0  0  0
    8.5302   -2.3149    1.1072 C   0  0  0  0  0  0  0  0  0  0  0  0
    9.7325   -2.1437    1.7940 C   0  0  0  0  0  0  0  0  0  0  0  0
    9.8665   -1.1158    2.8732 C   0  0  0  0  0  0  0  0  0  0  0  0
   10.8118   -2.9576    1.4517 C   0  0  0  0  0  0  0  0  0  0  0  0
   10.6406   -3.8987    0.4471 C   0  0  0  0  0  0  0  0  0  0  0  0
    9.4855   -4.0834   -0.2252 N   0  0  0  0  0  0  0  0  0  0  0  0
    4.1190   -1.7229    0.2696 C   0  0  0  0  0  0  0  0  0  0  0  0
    4.3665   -1.4663    1.7354 C   0  0  0  0  0  0  0  0  0  0  0  0
    4.1770   -0.2221    2.3586 C   0  0  0  0  0  0  0  0  0  0  0  0
    4.3037   -0.0498    3.7557 C   0  0  0  0  0  0  0  0  0  0  0  0
    4.6374   -1.1103    4.6211 C   0  0  0  0  0  0  0  0  0  0  0  0
    4.8749   -2.3867    3.9829 C   0  0  0  0  0  0  0  0  0  0  0  0
    4.7276   -2.5217    2.5854 C   0  0  0  0  0  0  0  0  0  0  0  0
    5.2244   -3.7208    4.7120 C   0  0  0  0  0  0  0  0  0  0  0  0
    5.0997   -3.2645    6.1114 C   0  0  0  0  0  0  0  0  0  0  0  0
    5.0670   -3.0819    7.5114 N   0  0  0  0  0  0  0  0  0  0  0  0
    4.7983   -1.5896    7.5473 C   0  0  0  0  0  0  0  0  0  0  0  0
    4.7512   -0.6901    6.1532 C   0  0  0  0  0  0  0  0  0  0  0  0
    0.5469    0.8505    0.4323 H   0  0  0  0  0  0  0  0  0  0  0  0
    0.3416   -0.8159   -0.1339 H   0  0  0  0  0  0  0  0  0  0  0  0
    0.9558    0.4800   -1.2357 H   0  0  0  0  0  0  0  0  0  0  0  0
    1.8843   -1.1100   -2.2864 H   0  0  0  0  0  0  0  0  0  0  0  0
    3.2062   -2.8201   -3.4010 H   0  0  0  0  0  0  0  0  0  0  0  0
    5.1383   -3.8259   -2.2827 H   0  0  0  0  0  0  0  0  0  0  0  0
    7.2118   -2.8234   -1.5443 H   0  0  0  0  0  0  0  0  0  0  0  0
    7.0767   -4.5238   -0.9895 H   0  0  0  0  0  0  0  0  0  0  0  0
    7.6694   -1.6922    1.3443 H   0  0  0  0  0  0  0  0  0  0  0  0
    8.9382   -0.5483    3.0057 H   0  0  0  0  0  0  0  0  0  0  0  0
   10.6597   -0.4047    2.6218 H   0  0  0  0  0  0  0  0  0  0  0  0
   10.1028   -1.5984    3.8266 H   0  0  0  0  0  0  0  0  0  0  0  0
   11.7679   -2.8655    1.9532 H   0  0  0  0  0  0  0  0  0  0  0  0
   11.4590   -4.5471    0.1471 H   0  0  0  0  0  0  0  0  0  0  0  0
    3.8997    0.6499    1.7696 H   0  0  0  0  0  0  0  0  0  0  0  0
    4.1071    0.9433    4.1606 H   0  0  0  0  0  0  0  0  0  0  0  0
    4.8780   -3.5169    2.1684 H   0  0  0  0  0  0  0  0  0  0  0  0
    6.2348   -4.0520    4.4494 H   0  0  0  0  0  0  0  0  0  0  0  0
    4.4967   -4.5010    4.4600 H   0  0  0  0  0  0  0  0  0  0  0  0
    4.0362   -3.0044    6.0064 H   0  0  0  0  0  0  0  0  0  0  0  0
    5.9839   -2.6158    6.0035 H   0  0  0  0  0  0  0  0  0  0  0  0
    5.9692   -3.2832    7.9384 H   0  0  0  0  0  0  0  0  0  0  0  0
    5.5571   -1.1343    8.1958 H   0  0  0  0  0  0  0  0  0  0  0  0
    3.8390   -1.4485    8.0604 H   0  0  0  0  0  0  0  0  0  0  0  0
    5.6593   -0.0722    6.1937 H   0  0  0  0  0  0  0  0  0  0  0  0
    3.9059   -0.0081    6.3270 H   0  0  0  0  0  0  0  0  0  0  0  0
  1  2  1  0  0  0  0
  1 29  1  0  0  0  0
  1 30  1  0  0  0  0
  1 31  1  0  0  0  0
  2  3  1  0  0  0  0
  3  4  1  0  0  0  0
  3 17  2  0  0  0  0
  4  5  2  0  0  0  0
  4 32  1  0  0  0  0
  5  6  1  0  0  0  0
  5 33  1  0  0  0  0
  6  7  2  0  0  0  0
  6 34  1  0  0  0  0
  7  8  1  0  0  0  0
  7 17  1  0  0  0  0
  8  9  1  0  0  0  0
  9 10  1  0  0  0  0
  9 35  1  0  0  0  0
  9 36  1  0  0  0  0
 10 11  1  0  0  0  0
 10 16  2  0  0  0  0
 11 12  2  0  0  0  0
 11 37  1  0  0  0  0
 12 13  1  0  0  0  0
 12 14  1  0  0  0  0
 13 38  1  0  0  0  0
 13 39  1  0  0  0  0
 13 40  1  0  0  0  0
 14 15  2  0  0  0  0
 14 41  1  0  0  0  0
 15 16  1  0  0  0  0
 15 42  1  0  0  0  0
 17 18  1  0  0  0  0
 18 19  1  0  0  0  0
 18 23  2  0  0  0  0
 19 20  2  0  0  0  0
 19 43  1  0  0  0  0
 20 21  1  0  0  0  0
 20 44  1  0  0  0  0
 21 22  2  0  0  0  0
 21 28  1  0  0  0  0
 22 23  1  0  0  0  0
 22 24  1  0  0  0  0
 23 45  1  0  0  0  0
 24 25  1  0  0  0  0
 24 46  1  0  0  0  0
 24 47  1  0  0  0  0
 25 26  1  0  0  0  0
 25 48  1  0  0  0  0
 25 49  1  0  0  0  0
 26 27  1  0  0  0  0
 26 50  1  0  0  0  0
 27 28  1  0  0  0  0
 27 51  1  0  0  0  0
 27 52  1  0  0  0  0
 28 53  1  0  0  0  0
 28 54  1  0  0  0  0
M  END
$$$$
