CHEMBL1967878
 OpenBabel04072215363D

 63 67  0  0  1  0  0  0  0  0999 V2000
    2.0538   -0.2117   -1.4251 C   0  0  0  0  0  0  0  0  0  0  0  0
    0.7380   -0.2146   -0.6843 C   0  0  0  0  0  0  0  0  0  0  0  0
    0.0525    1.0146   -0.6208 C   0  0  0  0  0  0  0  0  0  0  0  0
   -1.1185    1.2027    0.1162 C   0  0  0  0  0  0  0  0  0  0  0  0
   -1.8049    2.4398    0.1843 N   0  0  0  0  0  0  0  0  0  0  0  0
   -1.3550    3.7167   -0.1464 C   0  0  0  0  0  0  0  0  0  0  0  0
   -1.9137    4.7395    0.5135 N   0  0  0  0  0  0  0  0  0  0  0  0
   -1.3523    5.9556    0.3222 C   0  0  0  0  0  0  0  0  0  0  0  0
   -0.2514    6.1830   -0.4798 C   0  0  0  0  0  0  0  0  0  0  0  0
    0.2772    7.4074   -0.5863 F   0  0  0  0  0  0  0  0  0  0  0  0
    0.2051    5.1063   -1.1828 C   0  0  0  0  0  0  0  0  0  0  0  0
    1.2191    5.0756   -2.0883 N   0  0  0  0  0  0  0  0  0  0  0  0
    2.3473    5.9758   -2.3374 C   0  0  3  0  0  0  0  0  0  0  0  0
    3.4437    5.9192   -1.2297 C   0  0  3  0  0  0  0  0  0  0  0  0
    4.6605    6.7436   -1.5862 C   0  0  0  0  0  0  0  0  0  0  0  0
    5.3188    6.1145   -2.5804 C   0  0  0  0  0  0  0  0  0  0  0  0
    4.4824    4.9267   -2.9415 C   0  0  3  0  0  0  0  0  0  0  0  0
    4.0671    4.5484   -1.5053 C   0  0  0  0  0  0  0  0  0  0  0  0
    3.1370    5.3901   -3.5708 C   0  0  3  0  0  0  0  0  0  0  0  0
    3.1252    6.4220   -4.6890 C   0  0  0  0  0  0  0  0  0  0  0  0
    4.1707    6.4444   -5.5583 N   0  0  0  0  0  0  0  0  0  0  0  0
    2.1596    7.1456   -4.9208 O   0  0  0  0  0  0  0  0  0  0  0  0
   -0.3553    3.8937   -1.0225 N   0  0  0  0  0  0  0  0  0  0  0  0
   -1.6243    0.0851    0.7810 C   0  0  0  0  0  0  0  0  0  0  0  0
   -0.9568   -1.1522    0.7347 C   0  0  0  0  0  0  0  0  0  0  0  0
    0.2254   -1.3384   -0.0031 C   0  0  0  0  0  0  0  0  0  0  0  0
    0.8957   -2.5564   -0.0287 N   0  0  0  0  0  0  0  0  0  0  0  0
    0.7214   -3.5431    1.0551 C   0  0  0  0  0  0  0  0  0  0  0  0
    1.9446   -4.4995    1.0591 C   0  0  0  0  0  0  0  0  0  0  0  0
    2.1762   -5.1572   -0.2523 N   0  0  0  0  0  0  0  0  0  0  0  0
    3.3947   -5.9596   -0.2223 C   0  0  0  0  0  0  0  0  0  0  0  0
    2.2594   -4.1254   -1.3136 C   0  0  0  0  0  0  0  0  0  0  0  0
    0.9955   -3.2379   -1.3351 C   0  0  0  0  0  0  0  0  0  0  0  0
    2.2727    0.7768   -1.8457 H   0  0  0  0  0  0  0  0  0  0  0  0
    2.0505   -0.8857   -2.2814 H   0  0  0  0  0  0  0  0  0  0  0  0
    2.8764   -0.4687   -0.7517 H   0  0  0  0  0  0  0  0  0  0  0  0
    0.4907    1.8446   -1.1615 H   0  0  0  0  0  0  0  0  0  0  0  0
   -2.5142    2.5035    0.8909 H   0  0  0  0  0  0  0  0  0  0  0  0
   -1.8216    6.7740    0.8581 H   0  0  0  0  0  0  0  0  0  0  0  0
    1.2243    4.1701   -2.5513 H   0  0  0  0  0  0  0  0  0  0  0  0
    1.9895    6.9981   -2.4868 H   0  0  0  0  0  0  0  0  0  0  0  0
    3.0980    6.0675   -0.2022 H   0  0  0  0  0  0  0  0  0  0  0  0
    5.0411    7.6127   -1.0486 H   0  0  0  0  0  0  0  0  0  0  0  0
    6.2899    6.3589   -2.9885 H   0  0  0  0  0  0  0  0  0  0  0  0
    5.0083    4.1334   -3.4725 H   0  0  0  0  0  0  0  0  0  0  0  0
    4.9158    4.3202   -0.8466 H   0  0  0  0  0  0  0  0  0  0  0  0
    3.3572    3.7108   -1.4471 H   0  0  0  0  0  0  0  0  0  0  0  0
    2.6378    4.5042   -3.9870 H   0  0  0  0  0  0  0  0  0  0  0  0
    5.0956    6.1579   -5.2788 H   0  0  0  0  0  0  0  0  0  0  0  0
    4.1156    7.1947   -6.2401 H   0  0  0  0  0  0  0  0  0  0  0  0
   -2.5391    0.1581    1.3639 H   0  0  0  0  0  0  0  0  0  0  0  0
   -1.3940   -1.9788    1.2885 H   0  0  0  0  0  0  0  0  0  0  0  0
   -0.1998   -4.1212    0.8997 H   0  0  0  0  0  0  0  0  0  0  0  0
    0.6588   -3.0563    2.0351 H   0  0  0  0  0  0  0  0  0  0  0  0
    1.7851   -5.2651    1.8273 H   0  0  0  0  0  0  0  0  0  0  0  0
    2.8316   -3.9194    1.3490 H   0  0  0  0  0  0  0  0  0  0  0  0
    3.3089   -6.7536    0.5269 H   0  0  0  0  0  0  0  0  0  0  0  0
    4.2840   -5.3611    0.0058 H   0  0  0  0  0  0  0  0  0  0  0  0
    3.5505   -6.4520   -1.1886 H   0  0  0  0  0  0  0  0  0  0  0  0
    2.3680   -4.6053   -2.2926 H   0  0  0  0  0  0  0  0  0  0  0  0
    3.1423   -3.4885   -1.1569 H   0  0  0  0  0  0  0  0  0  0  0  0
    0.1029   -3.8538   -1.5061 H   0  0  0  0  0  0  0  0  0  0  0  0
    1.0469   -2.5577   -2.1855 H   0  0  0  0  0  0  0  0  0  0  0  0
  1  2  1  0  0  0  0
  1 34  1  0  0  0  0
  1 35  1  0  0  0  0
  1 36  1  0  0  0  0
  2  3  1  0  0  0  0
  2 26  2  0  0  0  0
  3  4  2  0  0  0  0
  3 37  1  0  0  0  0
  4  5  1  0  0  0  0
  4 24  1  0  0  0  0
  5  6  1  0  0  0  0
  5 38  1  0  0  0  0
  6  7  1  0  0  0  0
  6 23  2  0  0  0  0
  7  8  2  0  0  0  0
  8  9  1  0  0  0  0
  8 39  1  0  0  0  0
  9 10  1  0  0  0  0
  9 11  2  0  0  0  0
 11 12  1  0  0  0  0
 11 23  1  0  0  0  0
 12 13  1  0  0  0  0
 12 40  1  0  0  0  0
 13 14  1  0  0  0  0
 13 19  1  0  0  0  0
 13 41  1  0  0  0  0
 14 15  1  0  0  0  0
 14 18  1  0  0  0  0
 14 42  1  0  0  0  0
 15 16  2  0  0  0  0
 15 43  1  0  0  0  0
 16 17  1  0  0  0  0
 16 44  1  0  0  0  0
 17 18  1  0  0  0  0
 17 19  1  0  0  0  0
 17 45  1  0  0  0  0
 18 46  1  0  0  0  0
 18 47  1  0  0  0  0
 19 20  1  0  0  0  0
 19 48  1  0  0  0  0
 20 21  1  0  0  0  0
 20 22  2  0  0  0  0
 21 49  1  0  0  0  0
 21 50  1  0  0  0  0
 24 25  2  0  0  0  0
 24 51  1  0  0  0  0
 25 26  1  0  0  0  0
 25 52  1  0  0  0  0
 26 27  1  0  0  0  0
 27 28  1  0  0  0  0
 27 33  1  0  0  0  0
 28 29  1  0  0  0  0
 28 53  1  0  0  0  0
 28 54  1  0  0  0  0
 29 30  1  0  0  0  0
 29 55  1  0  0  0  0
 29 56  1  0  0  0  0
 30 31  1  0  0  0  0
 30 32  1  0  0  0  0
 31 57  1  0  0  0  0
 31 58  1  0  0  0  0
 31 59  1  0  0  0  0
 32 33  1  0  0  0  0
 32 60  1  0  0  0  0
 32 61  1  0  0  0  0
 33 62  1  0  0  0  0
 33 63  1  0  0  0  0
M  END
$$$$
