CHEMBL190188
 OpenBabel04072215363D

 66 69  0  0  0  0  0  0  0  0999 V2000
    5.7833    5.0120    1.8482 C   0  0  0  0  0  0  0  0  0  0  0  0
    4.6858    4.2836    1.1024 C   0  0  0  0  0  0  0  0  0  0  0  0
    5.2137    3.5996   -0.0484 N   0  0  0  0  0  0  0  0  0  0  0  0
    4.4039    2.8740   -0.8679 C   0  0  0  0  0  0  0  0  0  0  0  0
    3.1970    2.7372   -0.6924 O   0  0  0  0  0  0  0  0  0  0  0  0
    5.0374    2.1661   -1.8386 N   0  0  0  0  0  0  0  0  0  0  0  0
    6.3826    2.2384   -2.2191 C   0  0  0  0  0  0  0  0  0  0  0  0
    6.8915    3.5031   -2.2605 N   0  0  0  0  0  0  0  0  0  0  0  0
    8.1518    3.6928   -2.6788 C   0  0  0  0  0  0  0  0  0  0  0  0
    8.6520    4.9708   -2.8554 C   0  0  0  0  0  0  0  0  0  0  0  0
    9.9630    5.1439   -3.3136 C   0  0  0  0  0  0  0  0  0  0  0  0
   10.4166    6.4577   -3.5340 N   0  0  0  0  0  0  0  0  0  0  0  0
   11.5962    6.5446   -4.3979 C   0  0  0  0  0  0  0  0  0  0  0  0
   12.0052    8.0119   -4.4864 C   0  0  0  0  0  0  0  0  0  0  0  0
   13.2024    8.2325   -5.4163 C   0  0  0  0  0  0  0  0  0  0  0  0
   13.5530    9.6578   -5.5303 N   0  0  0  0  0  0  0  0  0  0  0  0
   13.9713   10.2481   -4.2430 C   0  0  0  0  0  0  0  0  0  0  0  0
   14.3605   11.7367   -4.3809 C   0  0  0  0  0  0  0  0  0  0  0  0
   15.4037   12.0148   -5.3844 N   0  0  0  0  0  0  0  0  0  0  0  0
   16.7215   11.5946   -4.9164 C   0  0  0  0  0  0  0  0  0  0  0  0
   15.0341   11.3560   -6.6539 C   0  0  0  0  0  0  0  0  0  0  0  0
   14.6177    9.8673   -6.5328 C   0  0  0  0  0  0  0  0  0  0  0  0
   10.7914    4.1132   -3.4819 N   0  0  0  0  0  0  0  0  0  0  0  0
   10.3029    2.8747   -3.2916 C   0  0  0  0  0  0  0  0  0  0  0  0
    8.9730    2.6095   -2.9711 C   0  0  0  0  0  0  0  0  0  0  0  0
    8.4283    1.3169   -2.9397 C   0  0  0  0  0  0  0  0  0  0  0  0
    7.0946    1.0707   -2.5590 C   0  0  0  0  0  0  0  0  0  0  0  0
    6.5999   -0.3555   -2.4304 C   0  0  0  0  0  0  0  0  0  0  0  0
    7.3977   -1.3835   -1.8413 C   0  0  0  0  0  0  0  0  0  0  0  0
    8.9491   -1.1114   -1.0989 Cl  0  0  0  0  0  0  0  0  0  0  0  0
    6.9768   -2.7252   -1.7763 C   0  0  0  0  0  0  0  0  0  0  0  0
    5.7025   -3.0850   -2.1781 C   0  0  0  0  0  0  0  0  0  0  0  0
    4.8718   -2.1126   -2.7087 C   0  0  0  0  0  0  0  0  0  0  0  0
    5.3337   -0.7961   -2.8990 C   0  0  0  0  0  0  0  0  0  0  0  0
    4.2693    0.1835   -3.8608 Cl  0  0  0  0  0  0  0  0  0  0  0  0
    5.3859    5.4865    2.7494 H   0  0  0  0  0  0  0  0  0  0  0  0
    6.2274    5.7871    1.2149 H   0  0  0  0  0  0  0  0  0  0  0  0
    6.5840    4.3241    2.1413 H   0  0  0  0  0  0  0  0  0  0  0  0
    3.9082    4.9767    0.7673 H   0  0  0  0  0  0  0  0  0  0  0  0
    4.2141    3.5361    1.7510 H   0  0  0  0  0  0  0  0  0  0  0  0
    6.0276    3.9805   -0.5236 H   0  0  0  0  0  0  0  0  0  0  0  0
    4.4325    1.5249   -2.3288 H   0  0  0  0  0  0  0  0  0  0  0  0
    8.0097    5.8244   -2.6972 H   0  0  0  0  0  0  0  0  0  0  0  0
    9.6626    7.0352   -3.8907 H   0  0  0  0  0  0  0  0  0  0  0  0
   11.3529    6.1633   -5.3977 H   0  0  0  0  0  0  0  0  0  0  0  0
   12.4348    5.9629   -3.9957 H   0  0  0  0  0  0  0  0  0  0  0  0
   12.2364    8.3456   -3.4689 H   0  0  0  0  0  0  0  0  0  0  0  0
   11.1553    8.6132   -4.8346 H   0  0  0  0  0  0  0  0  0  0  0  0
   12.9284    7.8578   -6.4117 H   0  0  0  0  0  0  0  0  0  0  0  0
   14.0620    7.6420   -5.0755 H   0  0  0  0  0  0  0  0  0  0  0  0
   14.8059    9.6792   -3.8137 H   0  0  0  0  0  0  0  0  0  0  0  0
   13.1490   10.2132   -3.5219 H   0  0  0  0  0  0  0  0  0  0  0  0
   14.6606   12.1273   -3.4006 H   0  0  0  0  0  0  0  0  0  0  0  0
   13.4620   12.3044   -4.6587 H   0  0  0  0  0  0  0  0  0  0  0  0
   16.9705   12.0993   -3.9757 H   0  0  0  0  0  0  0  0  0  0  0  0
   17.4904   11.8895   -5.6385 H   0  0  0  0  0  0  0  0  0  0  0  0
   16.8025   10.5155   -4.7530 H   0  0  0  0  0  0  0  0  0  0  0  0
   15.8518   11.4518   -7.3789 H   0  0  0  0  0  0  0  0  0  0  0  0
   14.1924   11.9143   -7.0856 H   0  0  0  0  0  0  0  0  0  0  0  0
   15.5000    9.2618   -6.2880 H   0  0  0  0  0  0  0  0  0  0  0  0
   14.2622    9.5362   -7.5164 H   0  0  0  0  0  0  0  0  0  0  0  0
   11.0243    2.0730   -3.4106 H   0  0  0  0  0  0  0  0  0  0  0  0
    9.0803    0.4925   -3.2178 H   0  0  0  0  0  0  0  0  0  0  0  0
    7.6440   -3.4940   -1.3895 H   0  0  0  0  0  0  0  0  0  0  0  0
    5.3648   -4.1148   -2.0905 H   0  0  0  0  0  0  0  0  0  0  0  0
    3.8652   -2.3928   -3.0155 H   0  0  0  0  0  0  0  0  0  0  0  0
  1  2  1  0  0  0  0
  1 36  1  0  0  0  0
  1 37  1  0  0  0  0
  1 38  1  0  0  0  0
  2  3  1  0  0  0  0
  2 39  1  0  0  0  0
  2 40  1  0  0  0  0
  3  4  1  0  0  0  0
  3 41  1  0  0  0  0
  4  5  2  0  0  0  0
  4  6  1  0  0  0  0
  6  7  1  0  0  0  0
  6 42  1  0  0  0  0
  7  8  1  0  0  0  0
  7 27  2  0  0  0  0
  8  9  2  0  0  0  0
  9 10  1  0  0  0  0
  9 25  1  0  0  0  0
 10 11  2  0  0  0  0
 10 43  1  0  0  0  0
 11 12  1  0  0  0  0
 11 23  1  0  0  0  0
 12 13  1  0  0  0  0
 12 44  1  0  0  0  0
 13 14  1  0  0  0  0
 13 45  1  0  0  0  0
 13 46  1  0  0  0  0
 14 15  1  0  0  0  0
 14 47  1  0  0  0  0
 14 48  1  0  0  0  0
 15 16  1  0  0  0  0
 15 49  1  0  0  0  0
 15 50  1  0  0  0  0
 16 17  1  0  0  0  0
 16 22  1  0  0  0  0
 17 18  1  0  0  0  0
 17 51  1  0  0  0  0
 17 52  1  0  0  0  0
 18 19  1  0  0  0  0
 18 53  1  0  0  0  0
 18 54  1  0  0  0  0
 19 20  1  0  0  0  0
 19 21  1  0  0  0  0
 20 55  1  0  0  0  0
 20 56  1  0  0  0  0
 20 57  1  0  0  0  0
 21 22  1  0  0  0  0
 21 58  1  0  0  0  0
 21 59  1  0  0  0  0
 22 60  1  0  0  0  0
 22 61  1  0  0  0  0
 23 24  2  0  0  0  0
 24 25  1  0  0  0  0
 24 62  1  0  0  0  0
 25 26  2  0  0  0  0
 26 27  1  0  0  0  0
 26 63  1  0  0  0  0
 27 28  1  0  0  0  0
 28 29  1  0  0  0  0
 28 34  2  0  0  0  0
 29 30  1  0  0  0  0
 29 31  2  0  0  0  0
 31 32  1  0  0  0  0
 31 64  1  0  0  0  0
 32 33  2  0  0  0  0
 32 65  1  0  0  0  0
 33 34  1  0  0  0  0
 33 66  1  0  0  0  0
 34 35  1  0  0  0  0
M  END
$$$$
