CHEMBL200217
 OpenBabel04072215363D

 70 74  0  0  0  0  0  0  0  0999 V2000
    2.3682   -0.6496    4.5817 C   0  0  0  0  0  0  0  0  0  0  0  0
    2.6452   -1.5724    3.5320 O   0  0  0  0  0  0  0  0  0  0  0  0
    3.9414   -2.0083    3.4662 C   0  0  0  0  0  0  0  0  0  0  0  0
    4.8001   -2.1046    4.5590 C   0  0  0  0  0  0  0  0  0  0  0  0
    6.1204   -2.5105    4.3709 C   0  0  0  0  0  0  0  0  0  0  0  0
    6.5806   -2.8503    3.0936 C   0  0  0  0  0  0  0  0  0  0  0  0
    8.2830   -3.1397    2.9435 Cl  0  0  0  0  0  0  0  0  0  0  0  0
    5.6957   -2.8817    1.9978 C   0  0  0  0  0  0  0  0  0  0  0  0
    6.0596   -3.2461    0.6755 N   0  0  0  0  0  0  0  0  0  0  0  0
    6.8332   -4.3934    0.3505 C   0  0  0  0  0  0  0  0  0  0  0  0
    6.8268   -5.4055    1.2475 N   0  0  0  0  0  0  0  0  0  0  0  0
    7.5058   -6.5031    0.9357 C   0  0  0  0  0  0  0  0  0  0  0  0
    8.1345   -6.7204   -0.2161 N   0  0  0  0  0  0  0  0  0  0  0  0
    8.0934   -5.7375   -1.1136 C   0  0  0  0  0  0  0  0  0  0  0  0
    8.7201   -6.0025   -2.3145 C   0  0  0  0  0  0  0  0  0  0  0  0
    8.7635   -5.0733   -3.3463 C   0  0  0  0  0  0  0  0  0  0  0  0
    9.3431   -5.2812   -4.5700 O   0  0  0  0  0  0  0  0  0  0  0  0
    9.9397   -6.5668   -4.7634 C   0  0  0  0  0  0  0  0  0  0  0  0
   10.5794   -6.6094   -6.1436 C   0  0  0  0  0  0  0  0  0  0  0  0
   11.2704   -7.9584   -6.3688 C   0  0  0  0  0  0  0  0  0  0  0  0
   11.8389   -8.1202   -7.7166 N   0  0  0  0  0  0  0  0  0  0  0  0
   12.4569   -9.4589   -7.8732 C   0  0  0  0  0  0  0  0  0  0  0  0
   13.8117   -9.6104   -7.1555 C   0  0  0  0  0  0  0  0  0  0  0  0
   14.7406   -8.6012   -7.5695 O   0  0  0  0  0  0  0  0  0  0  0  0
   14.2025   -7.2922   -7.3467 C   0  0  0  0  0  0  0  0  0  0  0  0
   12.8594   -7.1098   -8.0716 C   0  0  0  0  0  0  0  0  0  0  0  0
    8.1915   -3.8197   -3.1569 C   0  0  0  0  0  0  0  0  0  0  0  0
    7.5758   -3.5018   -1.9411 C   0  0  0  0  0  0  0  0  0  0  0  0
    7.0451   -2.2595   -1.6774 O   0  0  0  0  0  0  0  0  0  0  0  0
    7.5786   -1.1043   -2.3611 C   0  0  0  0  0  0  0  0  0  0  0  0
    9.0029   -0.7912   -1.8862 C   0  0  0  0  0  0  0  0  0  0  0  0
    9.4472    0.5991   -2.3053 C   0  0  0  0  0  0  0  0  0  0  0  0
    8.5090    1.5805   -1.8720 O   0  0  0  0  0  0  0  0  0  0  0  0
    7.2352    1.3974   -2.4817 C   0  0  0  0  0  0  0  0  0  0  0  0
    6.6334    0.0662   -2.0619 C   0  0  0  0  0  0  0  0  0  0  0  0
    7.4747   -4.4946   -0.9092 C   0  0  0  0  0  0  0  0  0  0  0  0
    4.3851   -2.4107    2.2004 C   0  0  0  0  0  0  0  0  0  0  0  0
    1.3466   -0.2813    4.4463 H   0  0  0  0  0  0  0  0  0  0  0  0
    3.0446    0.2124    4.5370 H   0  0  0  0  0  0  0  0  0  0  0  0
    2.4151   -1.1312    5.5627 H   0  0  0  0  0  0  0  0  0  0  0  0
    4.4744   -1.8689    5.5665 H   0  0  0  0  0  0  0  0  0  0  0  0
    6.7930   -2.5488    5.2237 H   0  0  0  0  0  0  0  0  0  0  0  0
    6.4098   -2.4416    0.1598 H   0  0  0  0  0  0  0  0  0  0  0  0
    7.5529   -7.2891    1.6799 H   0  0  0  0  0  0  0  0  0  0  0  0
    9.1703   -6.9859   -2.4173 H   0  0  0  0  0  0  0  0  0  0  0  0
    9.1749   -7.3500   -4.6900 H   0  0  0  0  0  0  0  0  0  0  0  0
   10.7206   -6.7297   -4.0095 H   0  0  0  0  0  0  0  0  0  0  0  0
   11.2924   -5.7806   -6.2091 H   0  0  0  0  0  0  0  0  0  0  0  0
    9.8170   -6.4282   -6.9108 H   0  0  0  0  0  0  0  0  0  0  0  0
   10.5159   -8.7440   -6.2258 H   0  0  0  0  0  0  0  0  0  0  0  0
   12.0260   -8.1085   -5.5891 H   0  0  0  0  0  0  0  0  0  0  0  0
   12.6160   -9.6201   -8.9478 H   0  0  0  0  0  0  0  0  0  0  0  0
   11.7665  -10.2455   -7.5462 H   0  0  0  0  0  0  0  0  0  0  0  0
   14.2522  -10.5820   -7.4008 H   0  0  0  0  0  0  0  0  0  0  0  0
   13.7025   -9.5695   -6.0655 H   0  0  0  0  0  0  0  0  0  0  0  0
   14.9278   -6.5703   -7.7359 H   0  0  0  0  0  0  0  0  0  0  0  0
   14.1100   -7.1173   -6.2688 H   0  0  0  0  0  0  0  0  0  0  0  0
   13.0373   -7.2024   -9.1511 H   0  0  0  0  0  0  0  0  0  0  0  0
   12.4877   -6.0911   -7.9299 H   0  0  0  0  0  0  0  0  0  0  0  0
    8.2355   -3.1174   -3.9812 H   0  0  0  0  0  0  0  0  0  0  0  0
    7.5582   -1.2491   -3.4471 H   0  0  0  0  0  0  0  0  0  0  0  0
    9.7105   -1.5310   -2.2773 H   0  0  0  0  0  0  0  0  0  0  0  0
    9.0418   -0.8764   -0.7930 H   0  0  0  0  0  0  0  0  0  0  0  0
    9.5764    0.6733   -3.3921 H   0  0  0  0  0  0  0  0  0  0  0  0
   10.4134    0.8361   -1.8455 H   0  0  0  0  0  0  0  0  0  0  0  0
    7.3382    1.4704   -3.5714 H   0  0  0  0  0  0  0  0  0  0  0  0
    6.5891    2.2198   -2.1576 H   0  0  0  0  0  0  0  0  0  0  0  0
    5.6754   -0.0902   -2.5709 H   0  0  0  0  0  0  0  0  0  0  0  0
    6.4114    0.0865   -0.9875 H   0  0  0  0  0  0  0  0  0  0  0  0
    3.6943   -2.3726    1.3610 H   0  0  0  0  0  0  0  0  0  0  0  0
  1  2  1  0  0  0  0
  1 38  1  0  0  0  0
  1 39  1  0  0  0  0
  1 40  1  0  0  0  0
  2  3  1  0  0  0  0
  3  4  1  0  0  0  0
  3 37  2  0  0  0  0
  4  5  2  0  0  0  0
  4 41  1  0  0  0  0
  5  6  1  0  0  0  0
  5 42  1  0  0  0  0
  6  7  1  0  0  0  0
  6  8  2  0  0  0  0
  8  9  1  0  0  0  0
  8 37  1  0  0  0  0
  9 10  1  0  0  0  0
  9 43  1  0  0  0  0
 10 11  1  0  0  0  0
 10 36  2  0  0  0  0
 11 12  2  0  0  0  0
 12 13  1  0  0  0  0
 12 44  1  0  0  0  0
 13 14  2  0  0  0  0
 14 15  1  0  0  0  0
 14 36  1  0  0  0  0
 15 16  2  0  0  0  0
 15 45  1  0  0  0  0
 16 17  1  0  0  0  0
 16 27  1  0  0  0  0
 17 18  1  0  0  0  0
 18 19  1  0  0  0  0
 18 46  1  0  0  0  0
 18 47  1  0  0  0  0
 19 20  1  0  0  0  0
 19 48  1  0  0  0  0
 19 49  1  0  0  0  0
 20 21  1  0  0  0  0
 20 50  1  0  0  0  0
 20 51  1  0  0  0  0
 21 22  1  0  0  0  0
 21 26  1  0  0  0  0
 22 23  1  0  0  0  0
 22 52  1  0  0  0  0
 22 53  1  0  0  0  0
 23 24  1  0  0  0  0
 23 54  1  0  0  0  0
 23 55  1  0  0  0  0
 24 25  1  0  0  0  0
 25 26  1  0  0  0  0
 25 56  1  0  0  0  0
 25 57  1  0  0  0  0
 26 58  1  0  0  0  0
 26 59  1  0  0  0  0
 27 28  2  0  0  0  0
 27 60  1  0  0  0  0
 28 29  1  0  0  0  0
 28 36  1  0  0  0  0
 29 30  1  0  0  0  0
 30 31  1  0  0  0  0
 30 35  1  0  0  0  0
 30 61  1  0  0  0  0
 31 32  1  0  0  0  0
 31 62  1  0  0  0  0
 31 63  1  0  0  0  0
 32 33  1  0  0  0  0
 32 64  1  0  0  0  0
 32 65  1  0  0  0  0
 33 34  1  0  0  0  0
 34 35  1  0  0  0  0
 34 66  1  0  0  0  0
 34 67  1  0  0  0  0
 35 68  1  0  0  0  0
 35 69  1  0  0  0  0
 37 70  1  0  0  0  0
M  END
$$$$
