CHEMBL1271617
 OpenBabel04072215363D

 35 37  0  0  0  0  0  0  0  0999 V2000
   -1.6953   -1.6015    0.0841 C   0  0  0  0  0  0  0  0  0  0  0  0
   -0.4468   -0.7684    0.0136 C   0  0  0  0  0  0  0  0  0  0  0  0
    0.8124   -1.3684   -0.0701 C   0  0  0  0  0  0  0  0  0  0  0  0
    1.9679   -0.5853   -0.1176 C   0  0  0  0  0  0  0  0  0  0  0  0
    1.8869    0.8119   -0.0802 C   0  0  0  0  0  0  0  0  0  0  0  0
    0.6378    1.4425   -0.0048 C   0  0  0  0  0  0  0  0  0  0  0  0
    0.4794    2.9308    0.0665 C   0  0  0  0  0  0  0  0  0  0  0  0
   -0.6707    3.3489    0.2116 O   0  0  0  0  0  0  0  0  0  0  0  0
    1.5906    3.7464   -0.0644 N   0  0  0  0  0  0  0  0  0  0  0  0
    1.5807    5.1740    0.0138 C   0  0  0  0  0  0  0  0  0  0  0  0
    0.4913    5.8804    0.5452 C   0  0  0  0  0  0  0  0  0  0  0  0
    0.4705    7.2708    0.5467 C   0  0  0  0  0  0  0  0  0  0  0  0
    1.5466    7.9705    0.0228 C   0  0  0  0  0  0  0  0  0  0  0  0
    2.6605    7.2803   -0.4763 C   0  0  0  0  0  0  0  0  0  0  0  0
    3.7486    7.9864   -0.9993 C   0  0  0  0  0  0  0  0  0  0  0  0
    4.8486    7.2965   -1.4853 C   0  0  0  0  0  0  0  0  0  0  0  0
    4.8225    5.9160   -1.4295 C   0  0  0  0  0  0  0  0  0  0  0  0
    3.7852    5.1924   -0.9446 N   0  0  0  0  0  0  0  0  0  0  0  0
    2.7045    5.8634   -0.4735 C   0  0  0  0  0  0  0  0  0  0  0  0
   -0.5223    0.6317    0.0403 C   0  0  0  0  0  0  0  0  0  0  0  0
   -1.7929    1.1563    0.1178 O   0  0  0  0  0  0  0  0  0  0  0  0
   -1.4681   -2.6721    0.0699 H   0  0  0  0  0  0  0  0  0  0  0  0
   -2.3458   -1.3853   -0.7699 H   0  0  0  0  0  0  0  0  0  0  0  0
   -2.2374   -1.3901    1.0123 H   0  0  0  0  0  0  0  0  0  0  0  0
    0.9006   -2.4532   -0.0934 H   0  0  0  0  0  0  0  0  0  0  0  0
    2.9400   -1.0719   -0.1762 H   0  0  0  0  0  0  0  0  0  0  0  0
    2.8154    1.3731   -0.0980 H   0  0  0  0  0  0  0  0  0  0  0  0
    2.4729    3.3771   -0.4015 H   0  0  0  0  0  0  0  0  0  0  0  0
   -0.3605    5.3730    0.9858 H   0  0  0  0  0  0  0  0  0  0  0  0
   -0.3912    7.7975    0.9471 H   0  0  0  0  0  0  0  0  0  0  0  0
    1.5111    9.0572    0.0109 H   0  0  0  0  0  0  0  0  0  0  0  0
    3.7407    9.0735   -1.0338 H   0  0  0  0  0  0  0  0  0  0  0  0
    5.7009    7.8256   -1.8973 H   0  0  0  0  0  0  0  0  0  0  0  0
    5.6667    5.3343   -1.7905 H   0  0  0  0  0  0  0  0  0  0  0  0
   -1.7122    2.1354    0.1588 H   0  0  0  0  0  0  0  0  0  0  0  0
  1  2  1  0  0  0  0
  1 22  1  0  0  0  0
  1 23  1  0  0  0  0
  1 24  1  0  0  0  0
  2  3  1  0  0  0  0
  2 20  2  0  0  0  0
  3  4  2  0  0  0  0
  3 25  1  0  0  0  0
  4  5  1  0  0  0  0
  4 26  1  0  0  0  0
  5  6  2  0  0  0  0
  5 27  1  0  0  0  0
  6  7  1  0  0  0  0
  6 20  1  0  0  0  0
  7  8  2  0  0  0  0
  7  9  1  0  0  0  0
  9 10  1  0  0  0  0
  9 28  1  0  0  0  0
 10 11  1  0  0  0  0
 10 19  2  0  0  0  0
 11 12  2  0  0  0  0
 11 29  1  0  0  0  0
 12 13  1  0  0  0  0
 12 30  1  0  0  0  0
 13 14  2  0  0  0  0
 13 31  1  0  0  0  0
 14 15  1  0  0  0  0
 14 19  1  0  0  0  0
 15 16  2  0  0  0  0
 15 32  1  0  0  0  0
 16 17  1  0  0  0  0
 16 33  1  0  0  0  0
 17 18  2  0  0  0  0
 17 34  1  0  0  0  0
 18 19  1  0  0  0  0
 20 21  1  0  0  0  0
 21 35  1  0  0  0  0
M  END
$$$$
