CHEMBL1980407
 OpenBabel04072215363D

 57 61  0  0  1  0  0  0  0  0999 V2000
    1.6104   -2.0929    0.3630 N   0  0  0  0  0  0  0  0  0  0  0  0
    0.7666   -1.1505   -0.3966 C   0  0  3  0  0  0  0  0  0  0  0  0
    1.0178   -1.3080   -1.9122 C   0  0  0  0  0  0  0  0  0  0  0  0
    2.3925   -1.0547   -2.2500 O   0  0  0  0  0  0  0  0  0  0  0  0
    2.7037   -1.2230   -3.5778 C   0  0  0  0  0  0  0  0  0  0  0  0
    1.8172   -1.5897   -4.5805 C   0  0  0  0  0  0  0  0  0  0  0  0
    2.1604   -1.7703   -5.8739 N   0  0  0  0  0  0  0  0  0  0  0  0
    3.4606   -1.5655   -6.1859 C   0  0  0  0  0  0  0  0  0  0  0  0
    4.4553   -1.1701   -5.2890 C   0  0  0  0  0  0  0  0  0  0  0  0
    5.8576   -0.9715   -5.7352 C   0  0  0  0  0  0  0  0  0  0  0  0
    6.9409   -1.3160   -4.8851 C   0  0  0  0  0  0  0  0  0  0  0  0
    8.2734   -1.1827   -5.2872 C   0  0  0  0  0  0  0  0  0  0  0  0
    8.5085   -0.7068   -6.5572 C   0  0  0  0  0  0  0  0  0  0  0  0
    7.4827   -0.3478   -7.4328 C   0  0  0  0  0  0  0  0  0  0  0  0
    6.1584   -0.4718   -7.0304 C   0  0  0  0  0  0  0  0  0  0  0  0
    8.1473    0.0771   -8.6786 C   0  0  0  0  0  0  0  0  0  0  0  0
    7.5567    0.4552   -9.8242 C   0  0  0  0  0  0  0  0  0  0  0  0
    8.3000    0.7077  -11.0017 C   0  0  0  0  0  0  0  0  0  0  0  0
    8.6205   -0.0749  -12.0926 C   0  0  0  0  0  0  0  0  0  0  0  0
    9.4833    0.6795  -12.9257 C   0  0  0  0  0  0  0  0  0  0  0  0
    9.6324    1.9178  -12.3440 C   0  0  0  0  0  0  0  0  0  0  0  0
    8.8992    1.9321  -11.1833 N   0  0  0  0  0  0  0  0  0  0  0  0
    9.6381   -0.0404   -8.4375 C   0  0  0  0  0  0  0  0  0  0  0  0
   10.5665    0.2466   -9.1664 O   0  0  0  0  0  0  0  0  0  0  0  0
    9.7502   -0.5266   -7.1477 N   0  0  0  0  0  0  0  0  0  0  0  0
    4.0368   -1.0065   -3.9509 C   0  0  0  0  0  0  0  0  0  0  0  0
   -0.7419   -1.3696   -0.1233 C   0  0  0  0  0  0  0  0  0  0  0  0
   -1.1742   -1.0778    1.2933 C   0  0  0  0  0  0  0  0  0  0  0  0
   -1.5610    0.2150    1.6708 C   0  0  0  0  0  0  0  0  0  0  0  0
   -1.9367    0.4834    2.9884 C   0  0  0  0  0  0  0  0  0  0  0  0
   -1.9281   -0.5354    3.9395 C   0  0  0  0  0  0  0  0  0  0  0  0
   -1.5517   -1.8255    3.5732 C   0  0  0  0  0  0  0  0  0  0  0  0
   -1.1790   -2.0961    2.2561 C   0  0  0  0  0  0  0  0  0  0  0  0
    2.5861   -1.9117    0.1223 H   0  0  0  0  0  0  0  0  0  0  0  0
    1.4239   -3.0483    0.0642 H   0  0  0  0  0  0  0  0  0  0  0  0
    1.0565   -0.1378   -0.0912 H   0  0  0  0  0  0  0  0  0  0  0  0
    0.3829   -0.5922   -2.4484 H   0  0  0  0  0  0  0  0  0  0  0  0
    0.7523   -2.3332   -2.2056 H   0  0  0  0  0  0  0  0  0  0  0  0
    0.7617   -1.7662   -4.3961 H   0  0  0  0  0  0  0  0  0  0  0  0
    3.6840   -1.7602   -7.2308 H   0  0  0  0  0  0  0  0  0  0  0  0
    6.7522   -1.7226   -3.8927 H   0  0  0  0  0  0  0  0  0  0  0  0
    9.0859   -1.4603   -4.6260 H   0  0  0  0  0  0  0  0  0  0  0  0
    5.3649   -0.1896   -7.7165 H   0  0  0  0  0  0  0  0  0  0  0  0
    6.4740    0.4891   -9.9062 H   0  0  0  0  0  0  0  0  0  0  0  0
    8.3168   -1.1011  -12.2455 H   0  0  0  0  0  0  0  0  0  0  0  0
    9.9668    0.3443  -13.8346 H   0  0  0  0  0  0  0  0  0  0  0  0
   10.2212    2.7763  -12.6351 H   0  0  0  0  0  0  0  0  0  0  0  0
    8.8647    2.7030  -10.5286 H   0  0  0  0  0  0  0  0  0  0  0  0
   10.6459   -0.7125   -6.7227 H   0  0  0  0  0  0  0  0  0  0  0  0
    4.7445   -0.7040   -3.1836 H   0  0  0  0  0  0  0  0  0  0  0  0
   -1.0308   -2.3970   -0.3854 H   0  0  0  0  0  0  0  0  0  0  0  0
   -1.3302   -0.7291   -0.7954 H   0  0  0  0  0  0  0  0  0  0  0  0
   -1.5689    1.0227    0.9432 H   0  0  0  0  0  0  0  0  0  0  0  0
   -2.2296    1.4898    3.2749 H   0  0  0  0  0  0  0  0  0  0  0  0
   -2.2079   -0.3232    4.9677 H   0  0  0  0  0  0  0  0  0  0  0  0
   -1.5379   -2.6206    4.3135 H   0  0  0  0  0  0  0  0  0  0  0  0
   -0.8746   -3.1048    1.9869 H   0  0  0  0  0  0  0  0  0  0  0  0
  1  2  1  0  0  0  0
  1 34  1  0  0  0  0
  1 35  1  0  0  0  0
  2  3  1  0  0  0  0
  2 27  1  0  0  0  0
  2 36  1  0  0  0  0
  3  4  1  0  0  0  0
  3 37  1  0  0  0  0
  3 38  1  0  0  0  0
  4  5  1  0  0  0  0
  5  6  1  0  0  0  0
  5 26  2  0  0  0  0
  6  7  2  0  0  0  0
  6 39  1  0  0  0  0
  7  8  1  0  0  0  0
  8  9  2  0  0  0  0
  8 40  1  0  0  0  0
  9 10  1  0  0  0  0
  9 26  1  0  0  0  0
 10 11  1  0  0  0  0
 10 15  2  0  0  0  0
 11 12  2  0  0  0  0
 11 41  1  0  0  0  0
 12 13  1  0  0  0  0
 12 42  1  0  0  0  0
 13 14  2  0  0  0  0
 13 25  1  0  0  0  0
 14 15  1  0  0  0  0
 14 16  1  0  0  0  0
 15 43  1  0  0  0  0
 16 17  2  3  0  0  0
 16 23  1  0  0  0  0
 17 18  1  0  0  0  0
 17 44  1  0  0  0  0
 18 19  2  0  0  0  0
 18 22  1  0  0  0  0
 19 20  1  0  0  0  0
 19 45  1  0  0  0  0
 20 21  2  0  0  0  0
 20 46  1  0  0  0  0
 21 22  1  0  0  0  0
 21 47  1  0  0  0  0
 22 48  1  0  0  0  0
 23 24  2  0  0  0  0
 23 25  1  0  0  0  0
 25 49  1  0  0  0  0
 26 50  1  0  0  0  0
 27 28  1  0  0  0  0
 27 51  1  0  0  0  0
 27 52  1  0  0  0  0
 28 29  1  0  0  0  0
 28 33  2  0  0  0  0
 29 30  2  0  0  0  0
 29 53  1  0  0  0  0
 30 31  1  0  0  0  0
 30 54  1  0  0  0  0
 31 32  2  0  0  0  0
 31 55  1  0  0  0  0
 32 33  1  0  0  0  0
 32 56  1  0  0  0  0
 33 57  1  0  0  0  0
M  END
$$$$
