CHEMBL3920464
 OpenBabel04072215373D

 63 66  0  0  0  0  0  0  0  0999 V2000
    1.5768   -1.9309    1.3666 C   0  0  0  0  0  0  0  0  0  0  0  0
    3.0525   -1.9143    1.7800 C   0  0  0  0  0  0  0  0  0  0  0  0
    3.6969   -3.2465    1.3949 C   0  0  0  0  0  0  0  0  0  0  0  0
    3.6861   -0.7912    1.1048 N   0  0  0  0  0  0  0  0  0  0  0  0
    5.0006   -0.3908    1.2058 C   0  0  0  0  0  0  0  0  0  0  0  0
    5.5860    0.2183    0.0884 C   0  0  0  0  0  0  0  0  0  0  0  0
    6.9331    0.6035    0.0336 C   0  0  0  0  0  0  0  0  0  0  0  0
    7.5366    1.1086   -1.1513 N   0  0  0  0  0  0  0  0  0  0  0  0
    6.9417    1.0649   -2.4056 C   0  0  0  0  0  0  0  0  0  0  0  0
    5.8291    0.6006   -2.6335 O   0  0  0  0  0  0  0  0  0  0  0  0
    7.7423    1.5630   -3.4269 N   0  0  0  0  0  0  0  0  0  0  0  0
    7.2036    1.5871   -4.7441 C   0  0  0  0  0  0  0  0  0  0  0  0
    5.9045    2.0651   -4.9740 C   0  0  0  0  0  0  0  0  0  0  0  0
    5.3028    1.9410   -6.2283 C   0  0  0  0  0  0  0  0  0  0  0  0
    6.0207    1.4014   -7.2962 C   0  0  0  0  0  0  0  0  0  0  0  0
    5.4931    1.2373   -8.5628 O   0  0  0  0  0  0  0  0  0  0  0  0
    4.6546    2.2068   -9.0825 C   0  0  0  0  0  0  0  0  0  0  0  0
    4.7427    3.5534   -8.7467 C   0  0  0  0  0  0  0  0  0  0  0  0
    3.8183    4.4137   -9.2930 C   0  0  0  0  0  0  0  0  0  0  0  0
    2.8831    4.0290  -10.1771 N   0  0  0  0  0  0  0  0  0  0  0  0
    2.8404    2.7396  -10.5634 C   0  0  0  0  0  0  0  0  0  0  0  0
    1.8952    2.3531  -11.5288 N   0  0  0  0  0  0  0  0  0  0  0  0
    0.9726    3.2171  -12.0961 C   0  0  0  0  0  0  0  0  0  0  0  0
    0.7944    4.3990  -11.8373 O   0  0  0  0  0  0  0  0  0  0  0  0
    0.0855    2.5692  -13.1154 C   0  0  0  0  0  0  0  0  0  0  0  0
   -0.7320    3.4355  -14.0537 C   0  0  0  0  0  0  0  0  0  0  0  0
   -1.4168    2.6705  -12.9601 C   0  0  0  0  0  0  0  0  0  0  0  0
    3.7111    1.7949  -10.0326 C   0  0  0  0  0  0  0  0  0  0  0  0
    7.3196    0.9368   -7.0622 C   0  0  0  0  0  0  0  0  0  0  0  0
    8.0054    0.3420   -8.0501 F   0  0  0  0  0  0  0  0  0  0  0  0
    7.9256    1.0458   -5.8044 C   0  0  0  0  0  0  0  0  0  0  0  0
    7.6948    0.4672    1.1939 C   0  0  0  0  0  0  0  0  0  0  0  0
    7.1285   -0.1116    2.3510 C   0  0  0  0  0  0  0  0  0  0  0  0
    7.8964   -0.2079    3.6457 C   0  0  0  0  0  0  0  0  0  0  0  0
    9.1588    0.2989    3.5697 F   0  0  0  0  0  0  0  0  0  0  0  0
    7.2864    0.4713    4.6578 F   0  0  0  0  0  0  0  0  0  0  0  0
    8.0332   -1.4888    4.0867 F   0  0  0  0  0  0  0  0  0  0  0  0
    5.8000   -0.5849    2.3215 C   0  0  0  0  0  0  0  0  0  0  0  0
    1.0365   -2.7431    1.8623 H   0  0  0  0  0  0  0  0  0  0  0  0
    1.4701   -2.0649    0.2826 H   0  0  0  0  0  0  0  0  0  0  0  0
    1.0893   -0.9856    1.6284 H   0  0  0  0  0  0  0  0  0  0  0  0
    3.1055   -1.7756    2.8649 H   0  0  0  0  0  0  0  0  0  0  0  0
    3.8126   -3.3443    0.3095 H   0  0  0  0  0  0  0  0  0  0  0  0
    3.0893   -4.0892    1.7455 H   0  0  0  0  0  0  0  0  0  0  0  0
    4.6890   -3.3519    1.8453 H   0  0  0  0  0  0  0  0  0  0  0  0
    3.1538   -0.3595    0.3542 H   0  0  0  0  0  0  0  0  0  0  0  0
    4.9299    0.3786   -0.7577 H   0  0  0  0  0  0  0  0  0  0  0  0
    8.4848    1.4493   -1.0902 H   0  0  0  0  0  0  0  0  0  0  0  0
    8.7252    1.3487   -3.3408 H   0  0  0  0  0  0  0  0  0  0  0  0
    5.3260    2.5015   -4.1609 H   0  0  0  0  0  0  0  0  0  0  0  0
    4.2709    2.2621   -6.3436 H   0  0  0  0  0  0  0  0  0  0  0  0
    5.4883    3.9396   -8.0635 H   0  0  0  0  0  0  0  0  0  0  0  0
    3.7961    5.4660   -9.0293 H   0  0  0  0  0  0  0  0  0  0  0  0
    1.8957    1.3872  -11.8200 H   0  0  0  0  0  0  0  0  0  0  0  0
    0.4669    1.6502  -13.5482 H   0  0  0  0  0  0  0  0  0  0  0  0
   -0.8686    3.1025  -15.0750 H   0  0  0  0  0  0  0  0  0  0  0  0
   -0.6681    4.5149  -13.9496 H   0  0  0  0  0  0  0  0  0  0  0  0
   -2.0250    1.8204  -13.2436 H   0  0  0  0  0  0  0  0  0  0  0  0
   -1.8100    3.2405  -12.1237 H   0  0  0  0  0  0  0  0  0  0  0  0
    3.6706    0.7552  -10.3369 H   0  0  0  0  0  0  0  0  0  0  0  0
    8.9173    0.6304   -5.6641 H   0  0  0  0  0  0  0  0  0  0  0  0
    8.7345    0.7896    1.2157 H   0  0  0  0  0  0  0  0  0  0  0  0
    5.3823   -1.0566    3.2081 H   0  0  0  0  0  0  0  0  0  0  0  0
  1  2  1  0  0  0  0
  1 39  1  0  0  0  0
  1 40  1  0  0  0  0
  1 41  1  0  0  0  0
  2  3  1  0  0  0  0
  2  4  1  0  0  0  0
  2 42  1  0  0  0  0
  3 43  1  0  0  0  0
  3 44  1  0  0  0  0
  3 45  1  0  0  0  0
  4  5  1  0  0  0  0
  4 46  1  0  0  0  0
  5  6  1  0  0  0  0
  5 38  2  0  0  0  0
  6  7  2  0  0  0  0
  6 47  1  0  0  0  0
  7  8  1  0  0  0  0
  7 32  1  0  0  0  0
  8  9  1  0  0  0  0
  8 48  1  0  0  0  0
  9 10  2  0  0  0  0
  9 11  1  0  0  0  0
 11 12  1  0  0  0  0
 11 49  1  0  0  0  0
 12 13  1  0  0  0  0
 12 31  2  0  0  0  0
 13 14  2  0  0  0  0
 13 50  1  0  0  0  0
 14 15  1  0  0  0  0
 14 51  1  0  0  0  0
 15 16  1  0  0  0  0
 15 29  2  0  0  0  0
 16 17  1  0  0  0  0
 17 18  1  0  0  0  0
 17 28  2  0  0  0  0
 18 19  2  0  0  0  0
 18 52  1  0  0  0  0
 19 20  1  0  0  0  0
 19 53  1  0  0  0  0
 20 21  2  0  0  0  0
 21 22  1  0  0  0  0
 21 28  1  0  0  0  0
 22 23  1  0  0  0  0
 22 54  1  0  0  0  0
 23 24  2  0  0  0  0
 23 25  1  0  0  0  0
 25 26  1  0  0  0  0
 25 27  1  0  0  0  0
 25 55  1  0  0  0  0
 26 27  1  0  0  0  0
 26 56  1  0  0  0  0
 26 57  1  0  0  0  0
 27 58  1  0  0  0  0
 27 59  1  0  0  0  0
 28 60  1  0  0  0  0
 29 30  1  0  0  0  0
 29 31  1  0  0  0  0
 31 61  1  0  0  0  0
 32 33  2  0  0  0  0
 32 62  1  0  0  0  0
 33 34  1  0  0  0  0
 33 38  1  0  0  0  0
 34 35  1  0  0  0  0
 34 36  1  0  0  0  0
 34 37  1  0  0  0  0
 38 63  1  0  0  0  0
M  END
$$$$
