CHEMBL381034
 OpenBabel04072215373D

 44 47  0  0  0  0  0  0  0  0999 V2000
    5.4412    1.5834   -1.7243 C   0  0  0  0  0  0  0  0  0  0  0  0
    4.4612    0.7689   -0.9353 C   0  0  0  0  0  0  0  0  0  0  0  0
    4.7844   -0.9075   -0.8166 S   0  0  0  0  0  0  0  0  0  0  0  0
    3.4425   -1.1794    0.1745 C   0  0  0  0  0  0  0  0  0  0  0  0
    3.2184   -2.4224    0.6314 N   0  0  0  0  0  0  0  0  0  0  0  0
    2.1352   -2.4970    1.3969 C   0  0  0  0  0  0  0  0  0  0  0  0
    1.2943   -1.5040    1.6993 N   0  0  0  0  0  0  0  0  0  0  0  0
    1.5350   -0.2729    1.2088 C   0  0  0  0  0  0  0  0  0  0  0  0
    0.5736    0.6651    1.5551 N   0  0  0  0  0  0  0  0  0  0  0  0
    2.6853   -0.0414    0.4094 C   0  0  0  0  0  0  0  0  0  0  0  0
    3.3025    1.1325   -0.2436 C   0  0  0  0  0  0  0  0  0  0  0  0
    2.8537    2.5398   -0.1656 C   0  0  0  0  0  0  0  0  0  0  0  0
    2.3212    3.0298    1.0253 C   0  0  0  0  0  0  0  0  0  0  0  0
    1.7737    4.3130    1.1049 C   0  0  0  0  0  0  0  0  0  0  0  0
    1.8529    5.2023    0.0340 C   0  0  0  0  0  0  0  0  0  0  0  0
    1.3318    6.5169    0.0689 N   0  0  0  0  0  0  0  0  0  0  0  0
    0.6867    7.0872    1.1464 C   0  0  0  0  0  0  0  0  0  0  0  0
    0.5368    6.5524    2.2386 O   0  0  0  0  0  0  0  0  0  0  0  0
    0.1534    8.3399    0.8520 N   0  0  0  0  0  0  0  0  0  0  0  0
   -0.6027    8.9959    1.8604 C   0  0  0  0  0  0  0  0  0  0  0  0
   -0.1255    9.0880    3.1677 C   0  0  0  0  0  0  0  0  0  0  0  0
   -0.9554    9.5511    4.1879 C   0  0  0  0  0  0  0  0  0  0  0  0
   -0.3733    9.6024    5.8076 Cl  0  0  0  0  0  0  0  0  0  0  0  0
   -2.2585    9.9273    3.9067 C   0  0  0  0  0  0  0  0  0  0  0  0
   -2.7146    9.8771    2.5896 C   0  0  0  0  0  0  0  0  0  0  0  0
   -4.3456   10.2995    2.2394 Cl  0  0  0  0  0  0  0  0  0  0  0  0
   -1.8832    9.4419    1.5554 C   0  0  0  0  0  0  0  0  0  0  0  0
    2.4670    4.7600   -1.1362 C   0  0  0  0  0  0  0  0  0  0  0  0
    2.9224    3.4331   -1.2455 C   0  0  0  0  0  0  0  0  0  0  0  0
    6.3547    1.0244   -1.9563 H   0  0  0  0  0  0  0  0  0  0  0  0
    5.7420    2.4787   -1.1720 H   0  0  0  0  0  0  0  0  0  0  0  0
    5.0069    1.8787   -2.6846 H   0  0  0  0  0  0  0  0  0  0  0  0
    1.9018   -3.4703    1.8160 H   0  0  0  0  0  0  0  0  0  0  0  0
   -0.2321    0.2093    1.9687 H   0  0  0  0  0  0  0  0  0  0  0  0
    0.3733    1.3608    0.8496 H   0  0  0  0  0  0  0  0  0  0  0  0
    2.2842    2.4172    1.9237 H   0  0  0  0  0  0  0  0  0  0  0  0
    1.2959    4.5676    2.0446 H   0  0  0  0  0  0  0  0  0  0  0  0
    1.5149    7.1109   -0.7258 H   0  0  0  0  0  0  0  0  0  0  0  0
   -0.1865    8.4249   -0.0954 H   0  0  0  0  0  0  0  0  0  0  0  0
    0.8764    8.7478    3.4146 H   0  0  0  0  0  0  0  0  0  0  0  0
   -2.9213   10.2419    4.7073 H   0  0  0  0  0  0  0  0  0  0  0  0
   -2.2751    9.3659    0.5457 H   0  0  0  0  0  0  0  0  0  0  0  0
    2.5807    5.4216   -1.9913 H   0  0  0  0  0  0  0  0  0  0  0  0
    3.3242    3.1248   -2.2046 H   0  0  0  0  0  0  0  0  0  0  0  0
  1  2  1  0  0  0  0
  1 30  1  0  0  0  0
  1 31  1  0  0  0  0
  1 32  1  0  0  0  0
  2  3  1  0  0  0  0
  2 11  2  0  0  0  0
  3  4  1  0  0  0  0
  4  5  1  0  0  0  0
  4 10  2  0  0  0  0
  5  6  2  0  0  0  0
  6  7  1  0  0  0  0
  6 33  1  0  0  0  0
  7  8  2  0  0  0  0
  8  9  1  0  0  0  0
  8 10  1  0  0  0  0
  9 34  1  0  0  0  0
  9 35  1  0  0  0  0
 10 11  1  0  0  0  0
 11 12  1  0  0  0  0
 12 13  1  0  0  0  0
 12 29  2  0  0  0  0
 13 14  2  0  0  0  0
 13 36  1  0  0  0  0
 14 15  1  0  0  0  0
 14 37  1  0  0  0  0
 15 16  1  0  0  0  0
 15 28  2  0  0  0  0
 16 17  1  0  0  0  0
 16 38  1  0  0  0  0
 17 18  2  0  0  0  0
 17 19  1  0  0  0  0
 19 20  1  0  0  0  0
 19 39  1  0  0  0  0
 20 21  1  0  0  0  0
 20 27  2  0  0  0  0
 21 22  2  0  0  0  0
 21 40  1  0  0  0  0
 22 23  1  0  0  0  0
 22 24  1  0  0  0  0
 24 25  2  0  0  0  0
 24 41  1  0  0  0  0
 25 26  1  0  0  0  0
 25 27  1  0  0  0  0
 27 42  1  0  0  0  0
 28 29  1  0  0  0  0
 28 43  1  0  0  0  0
 29 44  1  0  0  0  0
M  END
$$$$
