CHEMBL3114028
 OpenBabel04072215363D

 47 50  0  0  0  0  0  0  0  0999 V2000
    1.2939    0.2793    0.5089 C   0  0  0  0  0  0  0  0  0  0  0  0
    2.2724    0.0979   -0.5088 O   0  0  0  0  0  0  0  0  0  0  0  0
    3.2938    1.0105   -0.5377 C   0  0  0  0  0  0  0  0  0  0  0  0
    3.4253    2.1024    0.3150 C   0  0  0  0  0  0  0  0  0  0  0  0
    4.5160    2.9605    0.1664 C   0  0  0  0  0  0  0  0  0  0  0  0
    5.4559    2.7410   -0.8473 C   0  0  0  0  0  0  0  0  0  0  0  0
    5.3197    1.6800   -1.7463 C   0  0  0  0  0  0  0  0  0  0  0  0
    6.2244    1.4304   -2.7862 N   0  0  0  0  0  0  0  0  0  0  0  0
    7.1920    2.2449   -3.3838 C   0  0  0  0  0  0  0  0  0  0  0  0
    7.5519    1.8582   -4.6187 N   0  0  0  0  0  0  0  0  0  0  0  0
    8.4000    2.6565   -5.2827 C   0  0  0  0  0  0  0  0  0  0  0  0
    8.9063    3.8116   -4.7502 C   0  0  0  0  0  0  0  0  0  0  0  0
    8.4816    4.1565   -3.4755 C   0  0  0  0  0  0  0  0  0  0  0  0
    8.8478    5.4230   -2.9551 N   0  0  0  0  0  0  0  0  0  0  0  0
    8.9348    5.5415   -1.5068 C   0  0  0  0  0  0  0  0  0  0  0  0
    8.7361    6.6330   -3.7004 C   0  0  0  0  0  0  0  0  0  0  0  0
    7.7585    6.6432   -4.7726 C   0  0  0  0  0  0  0  0  0  0  0  0
    7.7847    7.4929   -5.8813 C   0  0  0  0  0  0  0  0  0  0  0  0
    8.7828    8.4161   -5.7096 C   0  0  0  0  0  0  0  0  0  0  0  0
    9.2233    9.2444   -6.7001 C   0  0  0  0  0  0  0  0  0  0  0  0
    9.8281   10.2320   -5.9783 N   0  0  0  0  0  0  0  0  0  0  0  0
    9.5852   11.6245   -6.2858 C   0  0  0  0  0  0  0  0  0  0  0  0
   10.2580    9.8233   -4.7551 N   0  0  0  0  0  0  0  0  0  0  0  0
    9.6133    8.6514   -4.5581 C   0  0  0  0  0  0  0  0  0  0  0  0
    9.6350    7.7192   -3.4971 C   0  0  0  0  0  0  0  0  0  0  0  0
    7.6513    3.3512   -2.7824 N   0  0  0  0  0  0  0  0  0  0  0  0
    4.2345    0.8061   -1.5612 C   0  0  0  0  0  0  0  0  0  0  0  0
    0.5781   -0.5442    0.4349 H   0  0  0  0  0  0  0  0  0  0  0  0
    0.7435    1.2152    0.3630 H   0  0  0  0  0  0  0  0  0  0  0  0
    1.7459    0.2376    1.5056 H   0  0  0  0  0  0  0  0  0  0  0  0
    2.7168    2.3104    1.1140 H   0  0  0  0  0  0  0  0  0  0  0  0
    4.6424    3.8063    0.8364 H   0  0  0  0  0  0  0  0  0  0  0  0
    6.2965    3.4281   -0.9078 H   0  0  0  0  0  0  0  0  0  0  0  0
    5.9417    0.7338   -3.4636 H   0  0  0  0  0  0  0  0  0  0  0  0
    8.6487    2.3439   -6.2922 H   0  0  0  0  0  0  0  0  0  0  0  0
    9.5728    4.4444   -5.3225 H   0  0  0  0  0  0  0  0  0  0  0  0
    8.8076    4.5847   -0.9878 H   0  0  0  0  0  0  0  0  0  0  0  0
    8.1787    6.2317   -1.1162 H   0  0  0  0  0  0  0  0  0  0  0  0
    9.9263    5.9093   -1.2185 H   0  0  0  0  0  0  0  0  0  0  0  0
    6.9773    5.8808   -4.7658 H   0  0  0  0  0  0  0  0  0  0  0  0
    7.1153    7.4133   -6.7230 H   0  0  0  0  0  0  0  0  0  0  0  0
    9.0088    9.3350   -7.7521 H   0  0  0  0  0  0  0  0  0  0  0  0
    8.5236   11.7120   -6.5549 H   0  0  0  0  0  0  0  0  0  0  0  0
   10.2013   11.9110   -7.1398 H   0  0  0  0  0  0  0  0  0  0  0  0
    9.7832   12.2446   -5.4119 H   0  0  0  0  0  0  0  0  0  0  0  0
   10.3503    7.7879   -2.6894 H   0  0  0  0  0  0  0  0  0  0  0  0
    4.1043   -0.0462   -2.2204 H   0  0  0  0  0  0  0  0  0  0  0  0
  1  2  1  0  0  0  0
  1 28  1  0  0  0  0
  1 29  1  0  0  0  0
  1 30  1  0  0  0  0
  2  3  1  0  0  0  0
  3  4  1  0  0  0  0
  3 27  2  0  0  0  0
  4  5  2  0  0  0  0
  4 31  1  0  0  0  0
  5  6  1  0  0  0  0
  5 32  1  0  0  0  0
  6  7  2  0  0  0  0
  6 33  1  0  0  0  0
  7  8  1  0  0  0  0
  7 27  1  0  0  0  0
  8  9  1  0  0  0  0
  8 34  1  0  0  0  0
  9 10  1  0  0  0  0
  9 26  2  0  0  0  0
 10 11  2  0  0  0  0
 11 12  1  0  0  0  0
 11 35  1  0  0  0  0
 12 13  2  0  0  0  0
 12 36  1  0  0  0  0
 13 14  1  0  0  0  0
 13 26  1  0  0  0  0
 14 15  1  0  0  0  0
 14 16  1  0  0  0  0
 15 37  1  0  0  0  0
 15 38  1  0  0  0  0
 15 39  1  0  0  0  0
 16 17  1  0  0  0  0
 16 25  2  0  0  0  0
 17 18  2  0  0  0  0
 17 40  1  0  0  0  0
 18 19  1  0  0  0  0
 18 41  1  0  0  0  0
 19 20  2  0  0  0  0
 19 24  1  0  0  0  0
 20 21  1  0  0  0  0
 20 42  1  0  0  0  0
 21 22  1  0  0  0  0
 21 23  1  0  0  0  0
 22 43  1  0  0  0  0
 22 44  1  0  0  0  0
 22 45  1  0  0  0  0
 23 24  2  0  0  0  0
 24 25  1  0  0  0  0
 25 46  1  0  0  0  0
 27 47  1  0  0  0  0
M  END
$$$$
