CHEMBL3694680
 OpenBabel04072215373D

 54 57  0  0  0  0  0  0  0  0999 V2000
    4.8725   -1.2010   -8.3996 C   0  0  0  0  0  0  0  0  0  0  0  0
    4.5486   -1.2824   -7.0176 O   0  0  0  0  0  0  0  0  0  0  0  0
    4.9655   -0.1066   -6.3084 C   0  0  0  0  0  0  0  0  0  0  0  0
    4.5628   -0.2527   -4.8352 C   0  0  0  0  0  0  0  0  0  0  0  0
    5.2220   -1.4172   -4.2433 N   0  0  0  0  0  0  0  0  0  0  0  0
    6.4492   -1.2415   -3.6963 C   0  0  0  0  0  0  0  0  0  0  0  0
    6.9072   -0.1285   -3.1698 N   0  0  0  0  0  0  0  0  0  0  0  0
    8.2093   -0.2354   -2.7381 N   0  0  0  0  0  0  0  0  0  0  0  0
    8.7274   -1.4358   -2.9335 C   0  0  0  0  0  0  0  0  0  0  0  0
   10.0759   -1.8441   -2.6309 C   0  0  0  0  0  0  0  0  0  0  0  0
   10.4850   -3.2178   -2.3073 C   0  0  0  0  0  0  0  0  0  0  0  0
   11.7689   -3.4967   -2.0263 C   0  0  0  0  0  0  0  0  0  0  0  0
   12.7352   -2.4871   -2.0794 N   0  0  0  0  0  0  0  0  0  0  0  0
   14.1230   -2.5216   -1.9114 C   0  0  0  0  0  0  0  0  0  0  0  0
   14.9758   -3.7126   -1.7311 C   0  0  0  0  0  0  0  0  0  0  0  0
   14.6380   -4.9236   -2.3471 C   0  0  0  0  0  0  0  0  0  0  0  0
   15.4178   -6.0593   -2.1725 C   0  0  0  0  0  0  0  0  0  0  0  0
   16.5998   -5.9860   -1.4457 C   0  0  0  0  0  0  0  0  0  0  0  0
   17.0273   -4.7799   -0.8893 C   0  0  0  0  0  0  0  0  0  0  0  0
   18.2785   -4.6515   -0.2311 N   0  0  0  0  0  0  0  0  0  0  0  0
   19.2488   -5.6277   -0.1348 C   0  0  0  0  0  0  0  0  0  0  0  0
   19.2097   -6.7604   -0.5969 O   0  0  0  0  0  0  0  0  0  0  0  0
   20.3412   -5.2283    0.6029 N   0  0  0  0  0  0  0  0  0  0  0  0
   21.4502   -6.1835    0.7708 C   0  0  0  0  0  0  0  0  0  0  0  0
   22.4098   -6.3350   -0.4204 C   0  0  0  0  0  0  0  0  0  0  0  0
   22.1822   -5.4092   -1.3801 F   0  0  0  0  0  0  0  0  0  0  0  0
   23.6899   -6.1570   -0.0033 F   0  0  0  0  0  0  0  0  0  0  0  0
   22.3437   -7.5575   -0.9870 F   0  0  0  0  0  0  0  0  0  0  0  0
   16.1897   -3.6515   -1.0062 C   0  0  0  0  0  0  0  0  0  0  0  0
   14.4935   -1.1884   -2.0198 C   0  0  0  0  0  0  0  0  0  0  0  0
   13.4320   -0.3672   -2.2859 N   0  0  0  0  0  0  0  0  0  0  0  0
   12.3884   -1.1626   -2.3424 C   0  0  0  0  0  0  0  0  0  0  0  0
   11.0193   -0.8696   -2.6194 C   0  0  0  0  0  0  0  0  0  0  0  0
    7.5902   -2.5252   -3.6636 S   0  0  0  0  0  0  0  0  0  0  0  0
    4.5218   -2.1139   -8.8887 H   0  0  0  0  0  0  0  0  0  0  0  0
    5.9557   -1.1264   -8.5338 H   0  0  0  0  0  0  0  0  0  0  0  0
    4.3737   -0.3435   -8.8612 H   0  0  0  0  0  0  0  0  0  0  0  0
    4.4738    0.7727   -6.7386 H   0  0  0  0  0  0  0  0  0  0  0  0
    6.0519    0.0056   -6.4031 H   0  0  0  0  0  0  0  0  0  0  0  0
    3.4817   -0.4187   -4.7728 H   0  0  0  0  0  0  0  0  0  0  0  0
    4.7829    0.6697   -4.2851 H   0  0  0  0  0  0  0  0  0  0  0  0
    5.1018   -2.2468   -4.8219 H   0  0  0  0  0  0  0  0  0  0  0  0
    9.7345   -4.0018   -2.2716 H   0  0  0  0  0  0  0  0  0  0  0  0
   12.0777   -4.4939   -1.7480 H   0  0  0  0  0  0  0  0  0  0  0  0
   13.7727   -5.0094   -2.9966 H   0  0  0  0  0  0  0  0  0  0  0  0
   15.1232   -7.0023   -2.6246 H   0  0  0  0  0  0  0  0  0  0  0  0
   17.1721   -6.9016   -1.3515 H   0  0  0  0  0  0  0  0  0  0  0  0
   18.4927   -3.7524    0.1731 H   0  0  0  0  0  0  0  0  0  0  0  0
   20.5836   -4.2487    0.5680 H   0  0  0  0  0  0  0  0  0  0  0  0
   21.0266   -7.1671    1.0097 H   0  0  0  0  0  0  0  0  0  0  0  0
   22.0068   -5.8531    1.6527 H   0  0  0  0  0  0  0  0  0  0  0  0
   16.4884   -2.7135   -0.5499 H   0  0  0  0  0  0  0  0  0  0  0  0
   15.4936   -0.7810   -1.9533 H   0  0  0  0  0  0  0  0  0  0  0  0
   10.7766    0.1682   -2.8337 H   0  0  0  0  0  0  0  0  0  0  0  0
  1  2  1  0  0  0  0
  1 35  1  0  0  0  0
  1 36  1  0  0  0  0
  1 37  1  0  0  0  0
  2  3  1  0  0  0  0
  3  4  1  0  0  0  0
  3 38  1  0  0  0  0
  3 39  1  0  0  0  0
  4  5  1  0  0  0  0
  4 40  1  0  0  0  0
  4 41  1  0  0  0  0
  5  6  1  0  0  0  0
  5 42  1  0  0  0  0
  6  7  2  0  0  0  0
  6 34  1  0  0  0  0
  7  8  1  0  0  0  0
  8  9  2  0  0  0  0
  9 10  1  0  0  0  0
  9 34  1  0  0  0  0
 10 11  1  0  0  0  0
 10 33  2  0  0  0  0
 11 12  2  0  0  0  0
 11 43  1  0  0  0  0
 12 13  1  0  0  0  0
 12 44  1  0  0  0  0
 13 14  1  0  0  0  0
 13 32  1  0  0  0  0
 14 15  1  0  0  0  0
 14 30  2  0  0  0  0
 15 16  1  0  0  0  0
 15 29  2  0  0  0  0
 16 17  2  0  0  0  0
 16 45  1  0  0  0  0
 17 18  1  0  0  0  0
 17 46  1  0  0  0  0
 18 19  2  0  0  0  0
 18 47  1  0  0  0  0
 19 20  1  0  0  0  0
 19 29  1  0  0  0  0
 20 21  1  0  0  0  0
 20 48  1  0  0  0  0
 21 22  2  0  0  0  0
 21 23  1  0  0  0  0
 23 24  1  0  0  0  0
 23 49  1  0  0  0  0
 24 25  1  0  0  0  0
 24 50  1  0  0  0  0
 24 51  1  0  0  0  0
 25 26  1  0  0  0  0
 25 27  1  0  0  0  0
 25 28  1  0  0  0  0
 29 52  1  0  0  0  0
 30 31  1  0  0  0  0
 30 53  1  0  0  0  0
 31 32  2  0  0  0  0
 32 33  1  0  0  0  0
 33 54  1  0  0  0  0
M  END
$$$$
