CHEMBL1290137
 OpenBabel04072215363D

 47 49  0  0  0  0  0  0  0  0999 V2000
    4.0159   -7.8246   -3.6068 C   0  0  0  0  0  0  0  0  0  0  0  0
    5.0951   -6.9905   -2.9446 C   0  0  0  0  0  0  0  0  0  0  0  0
    4.9970   -5.6454   -3.4170 O   0  0  0  0  0  0  0  0  0  0  0  0
    5.9052   -4.7616   -2.8965 C   0  0  0  0  0  0  0  0  0  0  0  0
    6.9062   -5.0759   -1.9856 C   0  0  0  0  0  0  0  0  0  0  0  0
    7.7904   -4.0874   -1.5370 C   0  0  0  0  0  0  0  0  0  0  0  0
    7.6850   -2.7559   -1.9567 C   0  0  0  0  0  0  0  0  0  0  0  0
    8.6141   -1.7629   -1.5665 N   0  0  0  0  0  0  0  0  0  0  0  0
    9.4371   -1.7594   -0.4147 C   0  0  0  0  0  0  0  0  0  0  0  0
   10.5383   -0.9320   -0.3510 C   0  0  0  0  0  0  0  0  0  0  0  0
   11.3892   -0.9709    0.6922 N   0  0  0  0  0  0  0  0  0  0  0  0
   11.1380   -1.8572    1.6932 N   0  0  0  0  0  0  0  0  0  0  0  0
   10.0348   -2.6320    1.6403 C   0  0  0  0  0  0  0  0  0  0  0  0
    9.7919   -3.5295    2.6828 N   0  0  0  0  0  0  0  0  0  0  0  0
    8.5619   -4.0500    3.1106 C   0  0  0  0  0  0  0  0  0  0  0  0
    8.5212   -5.2744    3.7872 C   0  0  0  0  0  0  0  0  0  0  0  0
    7.2984   -5.8621    4.1466 C   0  0  0  0  0  0  0  0  0  0  0  0
    6.0950   -5.2284    3.8397 C   0  0  0  0  0  0  0  0  0  0  0  0
    4.8392   -5.6891    4.1193 O   0  0  0  0  0  0  0  0  0  0  0  0
    4.7464   -6.9652    4.7455 C   0  0  0  0  0  0  0  0  0  0  0  0
    3.2762   -7.2887    4.9379 C   0  0  0  0  0  0  0  0  0  0  0  0
    6.1263   -4.0044    3.1763 C   0  0  0  0  0  0  0  0  0  0  0  0
    7.3422   -3.4313    2.8072 C   0  0  0  0  0  0  0  0  0  0  0  0
    9.1855   -2.5980    0.6010 N   0  0  0  0  0  0  0  0  0  0  0  0
    6.6906   -2.4558   -2.8971 C   0  0  0  0  0  0  0  0  0  0  0  0
    5.8056   -3.4468   -3.3543 C   0  0  0  0  0  0  0  0  0  0  0  0
    4.0544   -8.8569   -3.2469 H   0  0  0  0  0  0  0  0  0  0  0  0
    4.1415   -7.8259   -4.6942 H   0  0  0  0  0  0  0  0  0  0  0  0
    3.0240   -7.4129   -3.3957 H   0  0  0  0  0  0  0  0  0  0  0  0
    6.0738   -7.4122   -3.2039 H   0  0  0  0  0  0  0  0  0  0  0  0
    4.9476   -7.0210   -1.8585 H   0  0  0  0  0  0  0  0  0  0  0  0
    7.0466   -6.0773   -1.5979 H   0  0  0  0  0  0  0  0  0  0  0  0
    8.5717   -4.3938   -0.8467 H   0  0  0  0  0  0  0  0  0  0  0  0
    8.3116   -0.8266   -1.8075 H   0  0  0  0  0  0  0  0  0  0  0  0
   10.7893   -0.2368   -1.1399 H   0  0  0  0  0  0  0  0  0  0  0  0
   10.5523   -3.5596    3.3450 H   0  0  0  0  0  0  0  0  0  0  0  0
    9.4432   -5.8052    4.0122 H   0  0  0  0  0  0  0  0  0  0  0  0
    7.3239   -6.8209    4.6528 H   0  0  0  0  0  0  0  0  0  0  0  0
    5.2386   -6.9416    5.7241 H   0  0  0  0  0  0  0  0  0  0  0  0
    5.2019   -7.7341    4.1109 H   0  0  0  0  0  0  0  0  0  0  0  0
    2.7846   -6.5137    5.5352 H   0  0  0  0  0  0  0  0  0  0  0  0
    3.1544   -8.2530    5.4389 H   0  0  0  0  0  0  0  0  0  0  0  0
    2.7592   -7.3239    3.9731 H   0  0  0  0  0  0  0  0  0  0  0  0
    5.1985   -3.4941    2.9302 H   0  0  0  0  0  0  0  0  0  0  0  0
    7.3194   -2.4777    2.2860 H   0  0  0  0  0  0  0  0  0  0  0  0
    6.5856   -1.4468   -3.2885 H   0  0  0  0  0  0  0  0  0  0  0  0
    5.0375   -3.1866   -4.0775 H   0  0  0  0  0  0  0  0  0  0  0  0
  1  2  1  0  0  0  0
  1 27  1  0  0  0  0
  1 28  1  0  0  0  0
  1 29  1  0  0  0  0
  2  3  1  0  0  0  0
  2 30  1  0  0  0  0
  2 31  1  0  0  0  0
  3  4  1  0  0  0  0
  4  5  1  0  0  0  0
  4 26  2  0  0  0  0
  5  6  2  0  0  0  0
  5 32  1  0  0  0  0
  6  7  1  0  0  0  0
  6 33  1  0  0  0  0
  7  8  1  0  0  0  0
  7 25  2  0  0  0  0
  8  9  1  0  0  0  0
  8 34  1  0  0  0  0
  9 10  1  0  0  0  0
  9 24  2  0  0  0  0
 10 11  2  0  0  0  0
 10 35  1  0  0  0  0
 11 12  1  0  0  0  0
 12 13  2  0  0  0  0
 13 14  1  0  0  0  0
 13 24  1  0  0  0  0
 14 15  1  0  0  0  0
 14 36  1  0  0  0  0
 15 16  1  0  0  0  0
 15 23  2  0  0  0  0
 16 17  2  0  0  0  0
 16 37  1  0  0  0  0
 17 18  1  0  0  0  0
 17 38  1  0  0  0  0
 18 19  1  0  0  0  0
 18 22  2  0  0  0  0
 19 20  1  0  0  0  0
 20 21  1  0  0  0  0
 20 39  1  0  0  0  0
 20 40  1  0  0  0  0
 21 41  1  0  0  0  0
 21 42  1  0  0  0  0
 21 43  1  0  0  0  0
 22 23  1  0  0  0  0
 22 44  1  0  0  0  0
 23 45  1  0  0  0  0
 25 26  1  0  0  0  0
 25 46  1  0  0  0  0
 26 47  1  0  0  0  0
M  END
$$$$
