CHEMBL255282
 OpenBabel04072215363D

 54 59  0  0  0  0  0  0  0  0999 V2000
    4.3753   -0.4508   -2.4337 C   0  0  0  0  0  0  0  0  0  0  0  0
    3.9367   -0.2496   -1.0993 O   0  0  0  0  0  0  0  0  0  0  0  0
    4.7892    0.6617   -0.4686 N   0  0  0  0  0  0  0  0  0  0  0  0
    4.4211    0.8794    0.7598 C   0  0  0  0  0  0  0  0  0  0  0  0
    3.2061    0.2428    1.4156 C   0  0  0  0  0  0  0  0  0  0  0  0
    5.2103    1.8286    1.5968 C   0  0  0  0  0  0  0  0  0  0  0  0
    4.8088    2.0566    2.9149 C   0  0  0  0  0  0  0  0  0  0  0  0
    5.4378    3.0106    3.6954 C   0  0  0  0  0  0  0  0  0  0  0  0
    6.5034    3.7094    3.1198 C   0  0  0  0  0  0  0  0  0  0  0  0
    7.0387    3.3960    1.8658 C   0  0  0  0  0  0  0  0  0  0  0  0
    6.3371    2.4836    1.0597 C   0  0  0  0  0  0  0  0  0  0  0  0
    8.1977    4.1612    1.8535 C   0  0  0  0  0  0  0  0  0  0  0  0
    9.1953    4.2683    0.8811 C   0  0  0  0  0  0  0  0  0  0  0  0
   10.3522    5.2355    1.2218 C   0  0  0  0  0  0  0  0  0  0  0  0
   10.1821    6.1919    2.4012 C   0  0  0  0  0  0  0  0  0  0  0  0
    8.8130    6.3982    2.2518 C   0  0  0  0  0  0  0  0  0  0  0  0
    8.1254    5.2335    2.6810 C   0  0  0  0  0  0  0  0  0  0  0  0
    7.2273    4.7838    3.6368 N   0  0  0  0  0  0  0  0  0  0  0  0
    7.0936    5.0927    5.0544 C   0  0  0  0  0  0  0  0  0  0  0  0
    8.4813    7.8442    2.2720 C   0  0  0  0  0  0  0  0  0  0  0  0
    8.1758    7.8189    3.6931 C   0  0  0  0  0  0  0  0  0  0  0  0
    9.4908    7.8193    4.2842 C   0  0  0  0  0  0  0  0  0  0  0  0
    9.4046    8.5951    5.3249 N   0  0  0  0  0  0  0  0  0  0  0  0
   10.5926    9.0985    5.2931 N   0  0  0  0  0  0  0  0  0  0  0  0
   10.5980   10.2667    6.1745 C   0  0  0  0  0  0  0  0  0  0  0  0
   11.3859    8.0164    4.7529 C   0  0  0  0  0  0  0  0  0  0  0  0
   10.8606    7.1646    3.6720 C   0  0  0  0  0  0  0  0  0  0  0  0
   10.8859    5.4212   -0.1673 C   0  0  0  0  0  0  0  0  0  0  0  0
   11.6446    6.2385   -0.6765 O   0  0  0  0  0  0  0  0  0  0  0  0
   10.2091    4.4972   -1.0319 N   0  0  0  0  0  0  0  0  0  0  0  0
    9.0268    3.8760   -0.5121 C   0  0  0  0  0  0  0  0  0  0  0  0
    3.7199   -1.1956   -2.8915 H   0  0  0  0  0  0  0  0  0  0  0  0
    5.4019   -0.8291   -2.4492 H   0  0  0  0  0  0  0  0  0  0  0  0
    4.3031    0.4802   -3.0038 H   0  0  0  0  0  0  0  0  0  0  0  0
    2.6644   -0.4293    0.7555 H   0  0  0  0  0  0  0  0  0  0  0  0
    2.5178    1.0371    1.7273 H   0  0  0  0  0  0  0  0  0  0  0  0
    3.5130   -0.3356    2.2948 H   0  0  0  0  0  0  0  0  0  0  0  0
    3.9766    1.5158    3.3543 H   0  0  0  0  0  0  0  0  0  0  0  0
    5.0960    3.2159    4.7051 H   0  0  0  0  0  0  0  0  0  0  0  0
    6.6305    2.3196    0.0290 H   0  0  0  0  0  0  0  0  0  0  0  0
    7.8546    5.7532    5.4664 H   0  0  0  0  0  0  0  0  0  0  0  0
    7.2184    4.1594    5.6082 H   0  0  0  0  0  0  0  0  0  0  0  0
    6.0951    5.5126    5.2079 H   0  0  0  0  0  0  0  0  0  0  0  0
    7.7173    8.2049    1.5996 H   0  0  0  0  0  0  0  0  0  0  0  0
    9.3920    8.4405    2.0154 H   0  0  0  0  0  0  0  0  0  0  0  0
    7.8466    6.9126    4.1248 H   0  0  0  0  0  0  0  0  0  0  0  0
    7.4036    8.4964    4.0285 H   0  0  0  0  0  0  0  0  0  0  0  0
   10.0256   11.0660    5.6576 H   0  0  0  0  0  0  0  0  0  0  0  0
   11.5683   10.6529    6.4624 H   0  0  0  0  0  0  0  0  0  0  0  0
    9.9883   10.0487    7.0786 H   0  0  0  0  0  0  0  0  0  0  0  0
   12.2465    7.8270    5.3893 H   0  0  0  0  0  0  0  0  0  0  0  0
   10.3080    4.5800   -2.0373 H   0  0  0  0  0  0  0  0  0  0  0  0
    8.9719    2.8019   -0.7088 H   0  0  0  0  0  0  0  0  0  0  0  0
    8.1449    4.3634   -0.9623 H   0  0  0  0  0  0  0  0  0  0  0  0
  1  2  1  0  0  0  0
  1 32  1  0  0  0  0
  1 33  1  0  0  0  0
  1 34  1  0  0  0  0
  2  3  1  0  0  0  0
  3  4  2  0  0  0  0
  4  5  1  0  0  0  0
  4  6  1  0  0  0  0
  5 35  1  0  0  0  0
  5 36  1  0  0  0  0
  5 37  1  0  0  0  0
  6  7  1  0  0  0  0
  6 11  2  0  0  0  0
  7  8  2  0  0  0  0
  7 38  1  0  0  0  0
  8  9  1  0  0  0  0
  8 39  1  0  0  0  0
  9 10  2  0  0  0  0
  9 18  1  0  0  0  0
 10 11  1  0  0  0  0
 10 12  1  0  0  0  0
 11 40  1  0  0  0  0
 12 13  1  0  0  0  0
 12 17  2  0  0  0  0
 13 14  2  0  0  0  0
 13 31  1  0  0  0  0
 14 15  1  0  0  0  0
 14 28  1  0  0  0  0
 15 16  2  0  0  0  0
 15 27  1  0  0  0  0
 16 17  1  0  0  0  0
 16 20  1  0  0  0  0
 17 18  1  0  0  0  0
 18 19  1  0  0  0  0
 19 41  1  0  0  0  0
 19 42  1  0  0  0  0
 19 43  1  0  0  0  0
 20 21  1  0  0  0  0
 20 44  1  0  0  0  0
 20 45  1  0  0  0  0
 21 22  1  0  0  0  0
 21 46  1  0  0  0  0
 21 47  1  0  0  0  0
 22 23  2  0  0  0  0
 22 27  1  0  0  0  0
 23 24  1  0  0  0  0
 24 25  1  0  0  0  0
 24 26  1  0  0  0  0
 25 48  1  0  0  0  0
 25 49  1  0  0  0  0
 25 50  1  0  0  0  0
 26 27  2  0  0  0  0
 26 51  1  0  0  0  0
 28 29  2  0  0  0  0
 28 30  1  0  0  0  0
 30 31  1  0  0  0  0
 30 52  1  0  0  0  0
 31 53  1  0  0  0  0
 31 54  1  0  0  0  0
M  END
$$$$
