CHEMBL3690452
 OpenBabel04072215373D

 49 52  0  0  0  0  0  0  0  0999 V2000
    2.8143   -0.0650    1.5898 C   0  0  0  0  0  0  0  0  0  0  0  0
    2.6231   -0.0753    0.1769 O   0  0  0  0  0  0  0  0  0  0  0  0
    3.2778   -1.1216   -0.4351 C   0  0  0  0  0  0  0  0  0  0  0  0
    3.1731   -1.2339   -1.8144 C   0  0  0  0  0  0  0  0  0  0  0  0
    3.7960   -2.2127   -2.5190 N   0  0  0  0  0  0  0  0  0  0  0  0
    4.5299   -3.0979   -1.7949 C   0  0  0  0  0  0  0  0  0  0  0  0
    5.2620   -4.1357   -2.5648 C   0  0  0  0  0  0  0  0  0  0  0  0
    5.7062   -3.8842   -3.9426 C   0  0  0  0  0  0  0  0  0  0  0  0
    6.3846   -4.8238   -4.6208 C   0  0  0  0  0  0  0  0  0  0  0  0
    6.6954   -6.0398   -4.0064 N   0  0  0  0  0  0  0  0  0  0  0  0
    7.4579   -7.1282   -4.4384 C   0  0  0  0  0  0  0  0  0  0  0  0
    8.2590   -7.2202   -5.6719 C   0  0  0  0  0  0  0  0  0  0  0  0
    8.8849   -6.0803   -6.1943 C   0  0  0  0  0  0  0  0  0  0  0  0
    9.6207   -6.1428   -7.3703 C   0  0  0  0  0  0  0  0  0  0  0  0
    9.8155   -7.3633   -8.0032 C   0  0  0  0  0  0  0  0  0  0  0  0
    9.2913   -8.5434   -7.4696 C   0  0  0  0  0  0  0  0  0  0  0  0
    9.5552   -9.8149   -8.0397 N   0  0  0  0  0  0  0  0  0  0  0  0
   10.4118  -10.0680   -9.0944 C   0  0  0  0  0  0  0  0  0  0  0  0
   11.0941   -9.2584   -9.7058 O   0  0  0  0  0  0  0  0  0  0  0  0
   10.4144  -11.3939   -9.4721 N   0  0  0  0  0  0  0  0  0  0  0  0
   11.2890  -11.7862  -10.5888 C   0  0  0  0  0  0  0  0  0  0  0  0
   12.7851  -11.9312  -10.2661 C   0  0  0  0  0  0  0  0  0  0  0  0
   13.0312  -11.8525   -8.9383 F   0  0  0  0  0  0  0  0  0  0  0  0
   13.2241  -13.1505  -10.6716 F   0  0  0  0  0  0  0  0  0  0  0  0
   13.5424  -11.0077  -10.8930 F   0  0  0  0  0  0  0  0  0  0  0  0
    8.4825   -8.4557   -6.3188 C   0  0  0  0  0  0  0  0  0  0  0  0
    7.3276   -8.0468   -3.4060 C   0  0  0  0  0  0  0  0  0  0  0  0
    6.5843   -7.5617   -2.3639 N   0  0  0  0  0  0  0  0  0  0  0  0
    6.2385   -6.3478   -2.7267 C   0  0  0  0  0  0  0  0  0  0  0  0
    5.5021   -5.3523   -2.0183 C   0  0  0  0  0  0  0  0  0  0  0  0
    4.6273   -2.9632   -0.4094 C   0  0  0  0  0  0  0  0  0  0  0  0
    4.0035   -1.9886    0.2990 N   0  0  0  0  0  0  0  0  0  0  0  0
    2.3238    0.8266    1.9905 H   0  0  0  0  0  0  0  0  0  0  0  0
    3.8771   -0.0020    1.8506 H   0  0  0  0  0  0  0  0  0  0  0  0
    2.3485   -0.9424    2.0520 H   0  0  0  0  0  0  0  0  0  0  0  0
    2.5870   -0.5274   -2.3939 H   0  0  0  0  0  0  0  0  0  0  0  0
    5.4676   -2.9265   -4.3976 H   0  0  0  0  0  0  0  0  0  0  0  0
    6.6967   -4.6629   -5.6422 H   0  0  0  0  0  0  0  0  0  0  0  0
    8.8319   -5.1214   -5.6894 H   0  0  0  0  0  0  0  0  0  0  0  0
   10.0653   -5.2429   -7.7876 H   0  0  0  0  0  0  0  0  0  0  0  0
   10.4020   -7.3523   -8.9145 H   0  0  0  0  0  0  0  0  0  0  0  0
    9.1047  -10.6097   -7.6123 H   0  0  0  0  0  0  0  0  0  0  0  0
   10.2614  -12.0786   -8.7461 H   0  0  0  0  0  0  0  0  0  0  0  0
   11.1719  -11.0500  -11.3939 H   0  0  0  0  0  0  0  0  0  0  0  0
   10.8988  -12.7362  -10.9661 H   0  0  0  0  0  0  0  0  0  0  0  0
    8.0342   -9.3589   -5.9092 H   0  0  0  0  0  0  0  0  0  0  0  0
    7.7731   -9.0312   -3.3450 H   0  0  0  0  0  0  0  0  0  0  0  0
    5.1611   -5.6303   -1.0270 H   0  0  0  0  0  0  0  0  0  0  0  0
    5.2370   -3.6310    0.1920 H   0  0  0  0  0  0  0  0  0  0  0  0
  1  2  1  0  0  0  0
  1 33  1  0  0  0  0
  1 34  1  0  0  0  0
  1 35  1  0  0  0  0
  2  3  1  0  0  0  0
  3  4  1  0  0  0  0
  3 32  2  0  0  0  0
  4  5  2  0  0  0  0
  4 36  1  0  0  0  0
  5  6  1  0  0  0  0
  6  7  1  0  0  0  0
  6 31  2  0  0  0  0
  7  8  1  0  0  0  0
  7 30  2  0  0  0  0
  8  9  2  0  0  0  0
  8 37  1  0  0  0  0
  9 10  1  0  0  0  0
  9 38  1  0  0  0  0
 10 11  1  0  0  0  0
 10 29  1  0  0  0  0
 11 12  1  0  0  0  0
 11 27  2  0  0  0  0
 12 13  1  0  0  0  0
 12 26  2  0  0  0  0
 13 14  2  0  0  0  0
 13 39  1  0  0  0  0
 14 15  1  0  0  0  0
 14 40  1  0  0  0  0
 15 16  2  0  0  0  0
 15 41  1  0  0  0  0
 16 17  1  0  0  0  0
 16 26  1  0  0  0  0
 17 18  1  0  0  0  0
 17 42  1  0  0  0  0
 18 19  2  0  0  0  0
 18 20  1  0  0  0  0
 20 21  1  0  0  0  0
 20 43  1  0  0  0  0
 21 22  1  0  0  0  0
 21 44  1  0  0  0  0
 21 45  1  0  0  0  0
 22 23  1  0  0  0  0
 22 24  1  0  0  0  0
 22 25  1  0  0  0  0
 26 46  1  0  0  0  0
 27 28  1  0  0  0  0
 27 47  1  0  0  0  0
 28 29  2  0  0  0  0
 29 30  1  0  0  0  0
 30 48  1  0  0  0  0
 31 32  1  0  0  0  0
 31 49  1  0  0  0  0
M  END
$$$$
