CHEMBL269894
 OpenBabel04072215363D

 46 49  0  0  0  0  0  0  0  0999 V2000
    0.6844    1.6437   -1.5130 C   0  0  0  0  0  0  0  0  0  0  0  0
    2.1067    1.6777   -1.5840 O   0  0  0  0  0  0  0  0  0  0  0  0
    2.7318    2.5902   -0.7736 C   0  0  0  0  0  0  0  0  0  0  0  0
    2.0779    3.4772    0.0784 C   0  0  0  0  0  0  0  0  0  0  0  0
    2.8116    4.3621    0.8595 C   0  0  0  0  0  0  0  0  0  0  0  0
    4.2026    4.3587    0.7888 C   0  0  0  0  0  0  0  0  0  0  0  0
    4.8905    3.4590   -0.0281 C   0  0  0  0  0  0  0  0  0  0  0  0
    6.3050    3.4008   -0.0911 N   0  0  0  0  0  0  0  0  0  0  0  0
    7.1679    4.0624    0.7706 C   0  0  0  0  0  0  0  0  0  0  0  0
    6.8126    4.7529    1.7221 O   0  0  0  0  0  0  0  0  0  0  0  0
    8.5009    3.8982    0.4317 N   0  0  0  0  0  0  0  0  0  0  0  0
    9.5114    4.5004    1.2250 C   0  0  0  0  0  0  0  0  0  0  0  0
    9.4563    4.4781    2.6212 C   0  0  0  0  0  0  0  0  0  0  0  0
   10.3816    5.1978    3.3880 C   0  0  0  0  0  0  0  0  0  0  0  0
   11.4069    5.9411    2.7854 C   0  0  0  0  0  0  0  0  0  0  0  0
   12.3832    6.7108    3.5917 C   0  0  0  0  0  0  0  0  0  0  0  0
   12.8943    6.2003    4.8145 C   0  0  0  0  0  0  0  0  0  0  0  0
   13.9011    6.8447    5.5410 C   0  0  0  0  0  0  0  0  0  0  0  0
   14.4747    8.0216    5.0708 C   0  0  0  0  0  0  0  0  0  0  0  0
   13.9347    8.5408    3.8986 C   0  0  0  0  0  0  0  0  0  0  0  0
   14.3440    9.6882    3.3000 O   0  0  0  0  0  0  0  0  0  0  0  0
   13.5454    9.9483    2.2065 N   0  0  0  0  0  0  0  0  0  0  0  0
   12.6545    8.9555    2.1628 C   0  0  0  0  0  0  0  0  0  0  0  0
   11.6272    8.9373    1.2888 N   0  0  0  0  0  0  0  0  0  0  0  0
   12.8968    7.9711    3.1719 C   0  0  0  0  0  0  0  0  0  0  0  0
   11.4911    5.8770    1.3809 C   0  0  0  0  0  0  0  0  0  0  0  0
   10.5571    5.1744    0.6050 C   0  0  0  0  0  0  0  0  0  0  0  0
    4.1389    2.5897   -0.8333 C   0  0  0  0  0  0  0  0  0  0  0  0
    0.3279    0.8369   -2.1594 H   0  0  0  0  0  0  0  0  0  0  0  0
    0.2501    2.5821   -1.8798 H   0  0  0  0  0  0  0  0  0  0  0  0
    0.3393    1.4255   -0.4950 H   0  0  0  0  0  0  0  0  0  0  0  0
    0.9981    3.5095    0.1678 H   0  0  0  0  0  0  0  0  0  0  0  0
    2.3104    5.0545    1.5274 H   0  0  0  0  0  0  0  0  0  0  0  0
    4.7162    5.0867    1.4132 H   0  0  0  0  0  0  0  0  0  0  0  0
    6.7134    2.6936   -0.6873 H   0  0  0  0  0  0  0  0  0  0  0  0
    8.6849    3.8377   -0.5611 H   0  0  0  0  0  0  0  0  0  0  0  0
    8.6757    3.9192    3.1335 H   0  0  0  0  0  0  0  0  0  0  0  0
   10.2690    5.1737    4.4706 H   0  0  0  0  0  0  0  0  0  0  0  0
   12.5169    5.2565    5.2070 H   0  0  0  0  0  0  0  0  0  0  0  0
   14.2570    6.4088    6.4725 H   0  0  0  0  0  0  0  0  0  0  0  0
   15.2797    8.5234    5.5944 H   0  0  0  0  0  0  0  0  0  0  0  0
   11.4432    9.8072    0.7988 H   0  0  0  0  0  0  0  0  0  0  0  0
   10.7748    8.4495    1.5491 H   0  0  0  0  0  0  0  0  0  0  0  0
   12.2861    6.4050    0.8555 H   0  0  0  0  0  0  0  0  0  0  0  0
   10.6293    5.2266   -0.4770 H   0  0  0  0  0  0  0  0  0  0  0  0
    4.6277    1.8884   -1.5019 H   0  0  0  0  0  0  0  0  0  0  0  0
  1  2  1  0  0  0  0
  1 29  1  0  0  0  0
  1 30  1  0  0  0  0
  1 31  1  0  0  0  0
  2  3  1  0  0  0  0
  3  4  1  0  0  0  0
  3 28  2  0  0  0  0
  4  5  2  0  0  0  0
  4 32  1  0  0  0  0
  5  6  1  0  0  0  0
  5 33  1  0  0  0  0
  6  7  2  0  0  0  0
  6 34  1  0  0  0  0
  7  8  1  0  0  0  0
  7 28  1  0  0  0  0
  8  9  1  0  0  0  0
  8 35  1  0  0  0  0
  9 10  2  0  0  0  0
  9 11  1  0  0  0  0
 11 12  1  0  0  0  0
 11 36  1  0  0  0  0
 12 13  1  0  0  0  0
 12 27  2  0  0  0  0
 13 14  2  0  0  0  0
 13 37  1  0  0  0  0
 14 15  1  0  0  0  0
 14 38  1  0  0  0  0
 15 16  1  0  0  0  0
 15 26  2  0  0  0  0
 16 17  1  0  0  0  0
 16 25  2  0  0  0  0
 17 18  2  0  0  0  0
 17 39  1  0  0  0  0
 18 19  1  0  0  0  0
 18 40  1  0  0  0  0
 19 20  2  0  0  0  0
 19 41  1  0  0  0  0
 20 21  1  0  0  0  0
 20 25  1  0  0  0  0
 21 22  1  0  0  0  0
 22 23  2  0  0  0  0
 23 24  1  0  0  0  0
 23 25  1  0  0  0  0
 24 42  1  0  0  0  0
 24 43  1  0  0  0  0
 26 27  1  0  0  0  0
 26 44  1  0  0  0  0
 27 45  1  0  0  0  0
 28 46  1  0  0  0  0
M  END
$$$$
