CHEMBL3922912
 OpenBabel04072215373D

 53 56  0  0  0  0  0  0  0  0999 V2000
    1.0465   -0.6355    0.2669 O   0  0  0  0  0  0  0  0  0  0  0  0
    2.1817   -0.2186    0.0719 C   0  0  0  0  0  0  0  0  0  0  0  0
    2.8079    0.7511    0.8360 N   0  0  0  0  0  0  0  0  0  0  0  0
    2.2352    1.4568    1.9188 C   0  0  0  0  0  0  0  0  0  0  0  0
    1.0839    1.0495    2.6008 C   0  0  0  0  0  0  0  0  0  0  0  0
    0.5349    1.8423    3.6202 C   0  0  0  0  0  0  0  0  0  0  0  0
    1.1329    3.0533    3.9739 C   0  0  0  0  0  0  0  0  0  0  0  0
    0.4803    3.7952    4.9346 O   0  0  0  0  0  0  0  0  0  0  0  0
    1.2050    4.5638    5.8191 C   0  0  0  0  0  0  0  0  0  0  0  0
    2.4522    4.1998    6.3101 C   0  0  0  0  0  0  0  0  0  0  0  0
    3.0805    5.0740    7.1674 C   0  0  0  0  0  0  0  0  0  0  0  0
    2.5265    6.2229    7.5963 N   0  0  0  0  0  0  0  0  0  0  0  0
    1.2957    6.5477    7.1679 C   0  0  0  0  0  0  0  0  0  0  0  0
    0.6894    7.7295    7.6268 N   0  0  0  0  0  0  0  0  0  0  0  0
    1.2849    8.6157    8.5050 C   0  0  0  0  0  0  0  0  0  0  0  0
    2.3921    8.5314    9.0107 O   0  0  0  0  0  0  0  0  0  0  0  0
    0.4787    9.8190    8.8765 C   0  0  0  0  0  0  0  0  0  0  0  0
   -0.9639   10.0918    8.5396 C   0  0  0  0  0  0  0  0  0  0  0  0
    0.1222   10.8257    7.8066 C   0  0  0  0  0  0  0  0  0  0  0  0
    0.5999    5.7400    6.2757 C   0  0  0  0  0  0  0  0  0  0  0  0
    2.2783    3.4553    3.2841 C   0  0  0  0  0  0  0  0  0  0  0  0
    2.8601    4.6369    3.5340 F   0  0  0  0  0  0  0  0  0  0  0  0
    2.8486    2.6528    2.2959 C   0  0  0  0  0  0  0  0  0  0  0  0
    2.9911   -0.6244   -0.9765 N   0  0  0  0  0  0  0  0  0  0  0  0
    2.5808   -1.3942   -2.0897 C   0  0  0  0  0  0  0  0  0  0  0  0
    1.2438   -1.5705   -2.4543 C   0  0  0  0  0  0  0  0  0  0  0  0
    0.8905   -2.3264   -3.5815 C   0  0  0  0  0  0  0  0  0  0  0  0
   -0.4502   -2.3974   -3.8036 O   0  0  0  0  0  0  0  0  0  0  0  0
   -1.0059   -3.5180   -4.4742 C   0  0  0  0  0  0  0  0  0  0  0  0
   -0.1385   -4.5332   -4.6669 F   0  0  0  0  0  0  0  0  0  0  0  0
   -2.0380   -3.9904   -3.7399 F   0  0  0  0  0  0  0  0  0  0  0  0
   -1.4877   -3.1237   -5.6726 F   0  0  0  0  0  0  0  0  0  0  0  0
    1.8923   -2.8654   -4.3870 C   0  0  0  0  0  0  0  0  0  0  0  0
    3.2344   -2.7032   -4.0304 C   0  0  0  0  0  0  0  0  0  0  0  0
    3.5664   -1.9713   -2.8932 C   0  0  0  0  0  0  0  0  0  0  0  0
    4.8605   -1.8188   -2.5699 F   0  0  0  0  0  0  0  0  0  0  0  0
    3.6401    1.1529    0.4297 H   0  0  0  0  0  0  0  0  0  0  0  0
    0.5810    0.1161    2.3605 H   0  0  0  0  0  0  0  0  0  0  0  0
   -0.3709    1.5114    4.1231 H   0  0  0  0  0  0  0  0  0  0  0  0
    2.9481    3.2821    6.0209 H   0  0  0  0  0  0  0  0  0  0  0  0
    4.0797    4.8795    7.5447 H   0  0  0  0  0  0  0  0  0  0  0  0
   -0.2302    7.9402    7.2800 H   0  0  0  0  0  0  0  0  0  0  0  0
    0.8114   10.2347    9.8274 H   0  0  0  0  0  0  0  0  0  0  0  0
   -1.5423   10.6539    9.2676 H   0  0  0  0  0  0  0  0  0  0  0  0
   -1.5561    9.3692    7.9977 H   0  0  0  0  0  0  0  0  0  0  0  0
    0.2931   11.8716    8.0371 H   0  0  0  0  0  0  0  0  0  0  0  0
    0.3091   10.5685    6.7702 H   0  0  0  0  0  0  0  0  0  0  0  0
   -0.3926    6.0036    5.9259 H   0  0  0  0  0  0  0  0  0  0  0  0
    3.7480    3.0098    1.8046 H   0  0  0  0  0  0  0  0  0  0  0  0
    3.9912   -0.5251   -0.8586 H   0  0  0  0  0  0  0  0  0  0  0  0
    0.4424   -1.1135   -1.8791 H   0  0  0  0  0  0  0  0  0  0  0  0
    1.6660   -3.4052   -5.3023 H   0  0  0  0  0  0  0  0  0  0  0  0
    4.0227   -3.1389   -4.6372 H   0  0  0  0  0  0  0  0  0  0  0  0
  1  2  2  0  0  0  0
  2  3  1  0  0  0  0
  2 24  1  0  0  0  0
  3  4  1  0  0  0  0
  3 37  1  0  0  0  0
  4  5  1  0  0  0  0
  4 23  2  0  0  0  0
  5  6  2  0  0  0  0
  5 38  1  0  0  0  0
  6  7  1  0  0  0  0
  6 39  1  0  0  0  0
  7  8  1  0  0  0  0
  7 21  2  0  0  0  0
  8  9  1  0  0  0  0
  9 10  1  0  0  0  0
  9 20  2  0  0  0  0
 10 11  2  0  0  0  0
 10 40  1  0  0  0  0
 11 12  1  0  0  0  0
 11 41  1  0  0  0  0
 12 13  2  0  0  0  0
 13 14  1  0  0  0  0
 13 20  1  0  0  0  0
 14 15  1  0  0  0  0
 14 42  1  0  0  0  0
 15 16  2  0  0  0  0
 15 17  1  0  0  0  0
 17 18  1  0  0  0  0
 17 19  1  0  0  0  0
 17 43  1  0  0  0  0
 18 19  1  0  0  0  0
 18 44  1  0  0  0  0
 18 45  1  0  0  0  0
 19 46  1  0  0  0  0
 19 47  1  0  0  0  0
 20 48  1  0  0  0  0
 21 22  1  0  0  0  0
 21 23  1  0  0  0  0
 23 49  1  0  0  0  0
 24 25  1  0  0  0  0
 24 50  1  0  0  0  0
 25 26  1  0  0  0  0
 25 35  2  0  0  0  0
 26 27  2  0  0  0  0
 26 51  1  0  0  0  0
 27 28  1  0  0  0  0
 27 33  1  0  0  0  0
 28 29  1  0  0  0  0
 29 30  1  0  0  0  0
 29 31  1  0  0  0  0
 29 32  1  0  0  0  0
 33 34  2  0  0  0  0
 33 52  1  0  0  0  0
 34 35  1  0  0  0  0
 34 53  1  0  0  0  0
 35 36  1  0  0  0  0
M  END
$$$$
