CHEMBL3975092
 OpenBabel04072215373D

 40 43  0  0  0  0  0  0  0  0999 V2000
    1.0126    2.0562   -0.9104 C   0  0  0  0  0  0  0  0  0  0  0  0
    0.2888    1.1993   -0.1689 C   0  0  0  0  0  0  0  0  0  0  0  0
   -1.1456    1.2097   -0.0819 C   0  0  0  0  0  0  0  0  0  0  0  0
   -1.9374    2.0405   -0.7770 N   0  0  0  0  0  0  0  0  0  0  0  0
   -3.1819    1.6754   -0.4338 N   0  0  0  0  0  0  0  0  0  0  0  0
   -3.2416    0.6532    0.4709 C   0  0  0  0  0  0  0  0  0  0  0  0
   -4.3264    0.0062    1.0722 C   0  0  0  0  0  0  0  0  0  0  0  0
   -4.0394   -1.0281    1.9716 C   0  0  0  0  0  0  0  0  0  0  0  0
   -5.1383   -1.6478    2.5266 O   0  0  0  0  0  0  0  0  0  0  0  0
   -5.0789   -2.1525    3.8075 C   0  0  0  0  0  0  0  0  0  0  0  0
   -4.2733   -1.6381    4.8274 C   0  0  0  0  0  0  0  0  0  0  0  0
   -4.2631   -2.2400    6.0855 C   0  0  0  0  0  0  0  0  0  0  0  0
   -5.1076   -3.3163    6.3522 C   0  0  0  0  0  0  0  0  0  0  0  0
   -5.9612   -3.7924    5.3581 C   0  0  0  0  0  0  0  0  0  0  0  0
   -5.9458   -3.2144    4.0859 C   0  0  0  0  0  0  0  0  0  0  0  0
   -2.7183   -1.4196    2.2090 C   0  0  0  0  0  0  0  0  0  0  0  0
   -1.6469   -0.7341    1.6226 C   0  0  0  0  0  0  0  0  0  0  0  0
   -1.9159    0.3156    0.7271 C   0  0  0  0  0  0  0  0  0  0  0  0
    2.4744    2.0306   -1.0635 C   0  0  0  0  0  0  0  0  0  0  0  0
    3.2151    0.8396   -1.0462 C   0  0  0  0  0  0  0  0  0  0  0  0
    4.5932    0.8549   -1.2813 C   0  0  0  0  0  0  0  0  0  0  0  0
    5.2455    2.0557   -1.5456 C   0  0  0  0  0  0  0  0  0  0  0  0
    4.5215    3.2459   -1.5680 C   0  0  0  0  0  0  0  0  0  0  0  0
    3.1442    3.2319   -1.3321 C   0  0  0  0  0  0  0  0  0  0  0  0
    0.4982    2.8405   -1.4616 H   0  0  0  0  0  0  0  0  0  0  0  0
    0.8013    0.4330    0.4050 H   0  0  0  0  0  0  0  0  0  0  0  0
   -3.9584    2.1680   -0.8605 H   0  0  0  0  0  0  0  0  0  0  0  0
   -5.3518    0.2872    0.8550 H   0  0  0  0  0  0  0  0  0  0  0  0
   -3.6339   -0.7780    4.6561 H   0  0  0  0  0  0  0  0  0  0  0  0
   -3.5981   -1.8637    6.8582 H   0  0  0  0  0  0  0  0  0  0  0  0
   -5.1068   -3.7758    7.3360 H   0  0  0  0  0  0  0  0  0  0  0  0
   -6.6386   -4.6157    5.5716 H   0  0  0  0  0  0  0  0  0  0  0  0
   -6.6078   -3.5911    3.3149 H   0  0  0  0  0  0  0  0  0  0  0  0
   -2.4961   -2.2556    2.8673 H   0  0  0  0  0  0  0  0  0  0  0  0
   -0.6268   -1.0229    1.8559 H   0  0  0  0  0  0  0  0  0  0  0  0
    2.7285   -0.1156   -0.8743 H   0  0  0  0  0  0  0  0  0  0  0  0
    5.1527   -0.0770   -1.2753 H   0  0  0  0  0  0  0  0  0  0  0  0
    6.3145    2.0649   -1.7419 H   0  0  0  0  0  0  0  0  0  0  0  0
    5.0247    4.1854   -1.7787 H   0  0  0  0  0  0  0  0  0  0  0  0
    2.5955    4.1709   -1.3667 H   0  0  0  0  0  0  0  0  0  0  0  0
  1  2  2  0  0  0  0
  1 19  1  0  0  0  0
  1 25  1  0  0  0  0
  2  3  1  0  0  0  0
  2 26  1  0  0  0  0
  3  4  2  0  0  0  0
  3 18  1  0  0  0  0
  4  5  1  0  0  0  0
  5  6  1  0  0  0  0
  5 27  1  0  0  0  0
  6  7  1  0  0  0  0
  6 18  2  0  0  0  0
  7  8  2  0  0  0  0
  7 28  1  0  0  0  0
  8  9  1  0  0  0  0
  8 16  1  0  0  0  0
  9 10  1  0  0  0  0
 10 11  1  0  0  0  0
 10 15  2  0  0  0  0
 11 12  2  0  0  0  0
 11 29  1  0  0  0  0
 12 13  1  0  0  0  0
 12 30  1  0  0  0  0
 13 14  2  0  0  0  0
 13 31  1  0  0  0  0
 14 15  1  0  0  0  0
 14 32  1  0  0  0  0
 15 33  1  0  0  0  0
 16 17  2  0  0  0  0
 16 34  1  0  0  0  0
 17 18  1  0  0  0  0
 17 35  1  0  0  0  0
 19 20  1  0  0  0  0
 19 24  2  0  0  0  0
 20 21  2  0  0  0  0
 20 36  1  0  0  0  0
 21 22  1  0  0  0  0
 21 37  1  0  0  0  0
 22 23  2  0  0  0  0
 22 38  1  0  0  0  0
 23 24  1  0  0  0  0
 23 39  1  0  0  0  0
 24 40  1  0  0  0  0
M  END
$$$$
