CHEMBL3891895
 OpenBabel04072215373D

 57 61  0  0  0  0  0  0  0  0999 V2000
   -3.1022   -0.0332    1.3987 C   0  0  0  0  0  0  0  0  0  0  0  0
   -1.7273   -0.4601    1.0508 C   0  0  0  0  0  0  0  0  0  0  0  0
   -1.1534   -1.7525    1.1140 C   0  0  0  0  0  0  0  0  0  0  0  0
    0.1671   -1.5902    0.7536 C   0  0  0  0  0  0  0  0  0  0  0  0
    1.2655   -2.5273    0.7397 C   0  0  0  0  0  0  0  0  0  0  0  0
    2.4101   -2.1372    0.9536 O   0  0  0  0  0  0  0  0  0  0  0  0
    0.9381   -3.8410    0.4322 N   0  0  0  0  0  0  0  0  0  0  0  0
    1.8905   -4.8920    0.3290 C   0  0  0  0  0  0  0  0  0  0  0  0
    3.1783   -4.7872    0.8703 C   0  0  0  0  0  0  0  0  0  0  0  0
    4.1507   -5.7546    0.6395 C   0  0  0  0  0  0  0  0  0  0  0  0
    3.8317   -6.8768   -0.1020 C   0  0  0  0  0  0  0  0  0  0  0  0
    2.5149   -7.0731   -0.5306 C   0  0  0  0  0  0  0  0  0  0  0  0
    2.1297   -8.3360   -1.2008 C   0  0  0  0  0  0  0  0  0  0  0  0
    1.2197   -8.3074   -2.0276 O   0  0  0  0  0  0  0  0  0  0  0  0
    2.8010   -9.6365   -0.8833 C   0  0  0  0  0  0  0  0  0  0  0  0
    3.4482   -9.8932    0.3436 C   0  0  0  0  0  0  0  0  0  0  0  0
    4.1043  -11.1179    0.5964 C   0  0  0  0  0  0  0  0  0  0  0  0
    3.9333  -12.1510   -0.3423 C   0  0  0  0  0  0  0  0  0  0  0  0
    4.2136  -13.5538   -0.4890 C   0  0  0  0  0  0  0  0  0  0  0  0
    5.2483  -14.1636   -1.3212 C   0  0  0  0  0  0  0  0  0  0  0  0
    6.0368  -13.5011   -2.1888 C   0  0  0  0  0  0  0  0  0  0  0  0
    6.4728  -14.0932   -3.4737 C   0  0  0  0  0  0  0  0  0  0  0  0
    7.2104  -13.3285   -4.3733 C   0  0  0  0  0  0  0  0  0  0  0  0
    7.4544  -13.8290   -5.6532 C   0  0  0  0  0  0  0  0  0  0  0  0
    6.9495  -15.0728   -6.0079 C   0  0  0  0  0  0  0  0  0  0  0  0
    6.2223  -15.7696   -5.0597 C   0  0  0  0  0  0  0  0  0  0  0  0
    5.9764  -15.3099   -3.8100 N   0  0  0  0  0  0  0  0  0  0  0  0
    2.9974  -14.0925   -0.7411 N   0  0  0  0  0  0  0  0  0  0  0  0
    2.5152  -13.1755   -1.6067 N   0  0  0  0  0  0  0  0  0  0  0  0
    3.0183  -11.9241   -1.3653 C   0  0  0  0  0  0  0  0  0  0  0  0
    2.6173  -10.6693   -1.8057 C   0  0  0  0  0  0  0  0  0  0  0  0
    1.5472   -6.0678   -0.3431 C   0  0  0  0  0  0  0  0  0  0  0  0
    0.3024   -0.2460    0.4760 N   0  0  0  0  0  0  0  0  0  0  0  0
    1.4622    0.4887    0.0265 C   0  0  0  0  0  0  0  0  0  0  0  0
   -0.8457    0.4452    0.6314 N   0  0  0  0  0  0  0  0  0  0  0  0
   -3.7112   -0.8784    1.7313 H   0  0  0  0  0  0  0  0  0  0  0  0
   -3.5894    0.4224    0.5307 H   0  0  0  0  0  0  0  0  0  0  0  0
   -3.0775    0.7069    2.2062 H   0  0  0  0  0  0  0  0  0  0  0  0
   -1.6278   -2.6580    1.4460 H   0  0  0  0  0  0  0  0  0  0  0  0
    0.0077   -4.0165    0.0807 H   0  0  0  0  0  0  0  0  0  0  0  0
    3.4748   -3.9429    1.4848 H   0  0  0  0  0  0  0  0  0  0  0  0
    5.1516   -5.6220    1.0382 H   0  0  0  0  0  0  0  0  0  0  0  0
    4.6152   -7.5988   -0.3124 H   0  0  0  0  0  0  0  0  0  0  0  0
    3.4166   -9.1613    1.1490 H   0  0  0  0  0  0  0  0  0  0  0  0
    4.5896  -11.2948    1.5525 H   0  0  0  0  0  0  0  0  0  0  0  0
    5.0859  -15.2305   -1.4862 H   0  0  0  0  0  0  0  0  0  0  0  0
    6.1821  -12.4307   -2.0967 H   0  0  0  0  0  0  0  0  0  0  0  0
    7.5663  -12.3397   -4.1059 H   0  0  0  0  0  0  0  0  0  0  0  0
    8.0189  -13.2423   -6.3727 H   0  0  0  0  0  0  0  0  0  0  0  0
    7.1129  -15.4851   -6.9979 H   0  0  0  0  0  0  0  0  0  0  0  0
    5.7939  -16.7418   -5.2904 H   0  0  0  0  0  0  0  0  0  0  0  0
    1.7155  -13.4244   -2.1840 H   0  0  0  0  0  0  0  0  0  0  0  0
    2.0270  -10.5367   -2.7058 H   0  0  0  0  0  0  0  0  0  0  0  0
    0.5474   -6.2143   -0.7471 H   0  0  0  0  0  0  0  0  0  0  0  0
    2.3163   -0.1629   -0.1438 H   0  0  0  0  0  0  0  0  0  0  0  0
    1.7087    1.2331    0.7871 H   0  0  0  0  0  0  0  0  0  0  0  0
    1.2064    0.9756   -0.9175 H   0  0  0  0  0  0  0  0  0  0  0  0
  1  2  1  0  0  0  0
  1 36  1  0  0  0  0
  1 37  1  0  0  0  0
  1 38  1  0  0  0  0
  2  3  1  0  0  0  0
  2 35  2  0  0  0  0
  3  4  2  0  0  0  0
  3 39  1  0  0  0  0
  4  5  1  0  0  0  0
  4 33  1  0  0  0  0
  5  6  2  0  0  0  0
  5  7  1  0  0  0  0
  7  8  1  0  0  0  0
  7 40  1  0  0  0  0
  8  9  1  0  0  0  0
  8 32  2  0  0  0  0
  9 10  2  0  0  0  0
  9 41  1  0  0  0  0
 10 11  1  0  0  0  0
 10 42  1  0  0  0  0
 11 12  2  0  0  0  0
 11 43  1  0  0  0  0
 12 13  1  0  0  0  0
 12 32  1  0  0  0  0
 13 14  2  0  0  0  0
 13 15  1  0  0  0  0
 15 16  1  0  0  0  0
 15 31  2  0  0  0  0
 16 17  2  0  0  0  0
 16 44  1  0  0  0  0
 17 18  1  0  0  0  0
 17 45  1  0  0  0  0
 18 19  1  0  0  0  0
 18 30  2  0  0  0  0
 19 20  1  0  0  0  0
 19 28  2  0  0  0  0
 20 21  2  0  0  0  0
 20 46  1  0  0  0  0
 21 22  1  0  0  0  0
 21 47  1  0  0  0  0
 22 23  1  0  0  0  0
 22 27  2  0  0  0  0
 23 24  2  0  0  0  0
 23 48  1  0  0  0  0
 24 25  1  0  0  0  0
 24 49  1  0  0  0  0
 25 26  2  0  0  0  0
 25 50  1  0  0  0  0
 26 27  1  0  0  0  0
 26 51  1  0  0  0  0
 28 29  1  0  0  0  0
 29 30  1  0  0  0  0
 29 52  1  0  0  0  0
 30 31  1  0  0  0  0
 31 53  1  0  0  0  0
 32 54  1  0  0  0  0
 33 34  1  0  0  0  0
 33 35  1  0  0  0  0
 34 55  1  0  0  0  0
 34 56  1  0  0  0  0
 34 57  1  0  0  0  0
M  END
$$$$
