CHEMBL567475
 OpenBabel04072215383D

 59 63  0  0  0  0  0  0  0  0999 V2000
   13.0789    3.0871    7.8286 C   0  0  0  0  0  0  0  0  0  0  0  0
   12.2793    1.8886    8.2774 C   0  0  0  0  0  0  0  0  0  0  0  0
   11.1200    1.7116    7.4546 N   0  0  0  0  0  0  0  0  0  0  0  0
   11.0651    1.0117    6.2883 C   0  0  0  0  0  0  0  0  0  0  0  0
    9.8320    0.8981    5.8772 N   0  0  0  0  0  0  0  0  0  0  0  0
    9.1268    1.6800    6.7558 C   0  0  0  0  0  0  0  0  0  0  0  0
    7.7187    1.9205    6.6131 C   0  0  0  0  0  0  0  0  0  0  0  0
    7.0854    1.3359    5.5725 C   0  0  0  0  0  0  0  0  0  0  0  0
    5.7526    1.6325    5.6995 C   0  0  0  0  0  0  0  0  0  0  0  0
    4.8711    0.8019    5.1740 N   0  0  0  0  0  0  0  0  0  0  0  0
    3.8132    1.2870    4.5932 C   0  0  0  0  0  0  0  0  0  0  0  0
    3.3024    2.0686    5.5922 C   0  0  0  0  0  0  0  0  0  0  0  0
    4.0159    2.7699    6.8230 C   0  0  0  0  0  0  0  0  0  0  0  0
    3.7128    4.0414    7.4008 O   0  0  0  0  0  0  0  0  0  0  0  0
    3.3806    4.4714    8.7167 C   0  0  0  0  0  0  0  0  0  0  0  0
    2.2398    4.1254    9.4341 C   0  0  0  0  0  0  0  0  0  0  0  0
    2.0072    4.6110   10.7709 C   0  0  0  0  0  0  0  0  0  0  0  0
    2.7030    5.6893   11.3364 C   0  0  0  0  0  0  0  0  0  0  0  0
    2.4739    6.1878   12.6758 N   0  0  0  0  0  0  0  0  0  0  0  0
    1.5586    5.6756   13.5998 C   0  0  0  0  0  0  0  0  0  0  0  0
    0.8145    4.7194   13.3608 O   0  0  0  0  0  0  0  0  0  0  0  0
    1.4563    6.2826   15.0180 C   0  0  0  0  0  0  0  0  0  0  0  0
    2.3344    7.4732   15.3037 C   0  0  0  0  0  0  0  0  0  0  0  0
    2.6247    8.2249   14.3691 O   0  0  0  0  0  0  0  0  0  0  0  0
    2.7949    7.6668   16.6130 N   0  0  0  0  0  0  0  0  0  0  0  0
    3.7041    8.7384   16.8539 C   0  0  0  0  0  0  0  0  0  0  0  0
    3.3024   10.0554   16.5899 C   0  0  0  0  0  0  0  0  0  0  0  0
    4.1810   11.1245   16.7842 C   0  0  0  0  0  0  0  0  0  0  0  0
    5.5160   10.8601   17.0407 C   0  0  0  0  0  0  0  0  0  0  0  0
    6.3857   11.8738   17.1508 F   0  0  0  0  0  0  0  0  0  0  0  0
    5.9540    9.5512   17.2043 C   0  0  0  0  0  0  0  0  0  0  0  0
    5.0189    8.5047   17.2697 C   0  0  0  0  0  0  0  0  0  0  0  0
    3.6402    6.2767   10.4849 C   0  0  0  0  0  0  0  0  0  0  0  0
    3.9836    5.6568    9.2322 C   0  0  0  0  0  0  0  0  0  0  0  0
    4.9389    6.2752    8.5180 F   0  0  0  0  0  0  0  0  0  0  0  0
    5.3716    2.4858    6.7136 C   0  0  0  0  0  0  0  0  0  0  0  0
    6.7427    2.8459    7.6512 S   0  0  0  0  0  0  0  0  0  0  0  0
    9.8918    2.1721    7.7664 C   0  0  0  0  0  0  0  0  0  0  0  0
   13.9586    3.1977    8.4640 H   0  0  0  0  0  0  0  0  0  0  0  0
   12.4835    4.0056    7.8843 H   0  0  0  0  0  0  0  0  0  0  0  0
   13.4035    2.9673    6.7895 H   0  0  0  0  0  0  0  0  0  0  0  0
   11.9234    2.0024    9.3069 H   0  0  0  0  0  0  0  0  0  0  0  0
   12.8519    0.9616    8.2094 H   0  0  0  0  0  0  0  0  0  0  0  0
   11.9245    0.6099    5.7743 H   0  0  0  0  0  0  0  0  0  0  0  0
    7.4712    0.5919    4.8850 H   0  0  0  0  0  0  0  0  0  0  0  0
    4.2541    0.6565    3.7948 H   0  0  0  0  0  0  0  0  0  0  0  0
    2.2233    2.1368    5.3696 H   0  0  0  0  0  0  0  0  0  0  0  0
    1.4238    3.5858    8.9638 H   0  0  0  0  0  0  0  0  0  0  0  0
    1.2355    4.0996   11.3389 H   0  0  0  0  0  0  0  0  0  0  0  0
    2.9987    7.0209   12.9622 H   0  0  0  0  0  0  0  0  0  0  0  0
    1.6232    5.4749   15.7393 H   0  0  0  0  0  0  0  0  0  0  0  0
    0.4060    6.5986   15.1488 H   0  0  0  0  0  0  0  0  0  0  0  0
    2.8096    6.8799   17.2543 H   0  0  0  0  0  0  0  0  0  0  0  0
    2.2906   10.2607   16.2532 H   0  0  0  0  0  0  0  0  0  0  0  0
    3.8374   12.1501   16.6994 H   0  0  0  0  0  0  0  0  0  0  0  0
    7.0220    9.3594   17.2684 H   0  0  0  0  0  0  0  0  0  0  0  0
    5.3641    7.5203   17.5677 H   0  0  0  0  0  0  0  0  0  0  0  0
    4.1570    7.1987   10.7499 H   0  0  0  0  0  0  0  0  0  0  0  0
    9.6303    2.7917    8.6127 H   0  0  0  0  0  0  0  0  0  0  0  0
  1  2  1  0  0  0  0
  1 39  1  0  0  0  0
  1 40  1  0  0  0  0
  1 41  1  0  0  0  0
  2  3  1  0  0  0  0
  2 42  1  0  0  0  0
  2 43  1  0  0  0  0
  3  4  1  0  0  0  0
  3 38  1  0  0  0  0
  4  5  2  0  0  0  0
  4 44  1  0  0  0  0
  5  6  1  0  0  0  0
  6  7  1  0  0  0  0
  6 38  2  0  0  0  0
  7  8  2  0  0  0  0
  7 37  1  0  0  0  0
  8  9  1  0  0  0  0
  8 45  1  0  0  0  0
  9 10  1  0  0  0  0
  9 36  2  0  0  0  0
 10 11  2  0  0  0  0
 11 12  1  0  0  0  0
 11 46  1  0  0  0  0
 12 13  2  0  0  0  0
 12 47  1  0  0  0  0
 13 14  1  0  0  0  0
 13 36  1  0  0  0  0
 14 15  1  0  0  0  0
 15 16  1  0  0  0  0
 15 34  2  0  0  0  0
 16 17  2  0  0  0  0
 16 48  1  0  0  0  0
 17 18  1  0  0  0  0
 17 49  1  0  0  0  0
 18 19  1  0  0  0  0
 18 33  2  0  0  0  0
 19 20  1  0  0  0  0
 19 50  1  0  0  0  0
 20 21  2  0  0  0  0
 20 22  1  0  0  0  0
 22 23  1  0  0  0  0
 22 51  1  0  0  0  0
 22 52  1  0  0  0  0
 23 24  2  0  0  0  0
 23 25  1  0  0  0  0
 25 26  1  0  0  0  0
 25 53  1  0  0  0  0
 26 27  1  0  0  0  0
 26 32  2  0  0  0  0
 27 28  2  0  0  0  0
 27 54  1  0  0  0  0
 28 29  1  0  0  0  0
 28 55  1  0  0  0  0
 29 30  1  0  0  0  0
 29 31  2  0  0  0  0
 31 32  1  0  0  0  0
 31 56  1  0  0  0  0
 32 57  1  0  0  0  0
 33 34  1  0  0  0  0
 33 58  1  0  0  0  0
 34 35  1  0  0  0  0
 36 37  1  0  0  0  0
 38 59  1  0  0  0  0
M  END
$$$$
