CHEMBL3633765
 OpenBabel04072215373D

 53 55  0  0  0  0  0  0  0  0999 V2000
    3.4586    0.0923    1.2551 C   0  0  0  0  0  0  0  0  0  0  0  0
    2.5307    0.0373    0.1695 O   0  0  0  0  0  0  0  0  0  0  0  0
    3.0624   -0.2715   -1.0536 C   0  0  0  0  0  0  0  0  0  0  0  0
    4.1296   -1.1702   -1.1657 C   0  0  0  0  0  0  0  0  0  0  0  0
    4.7580   -1.4199   -2.3700 C   0  0  0  0  0  0  0  0  0  0  0  0
    5.8336   -2.2095   -2.3572 N   0  0  0  0  0  0  0  0  0  0  0  0
    6.4516   -2.3895   -3.5245 C   0  0  0  0  0  0  0  0  0  0  0  0
    6.0903   -1.8529   -4.6895 N   0  0  0  0  0  0  0  0  0  0  0  0
    4.9997   -1.0599   -4.6924 C   0  0  0  0  0  0  0  0  0  0  0  0
    4.6234   -0.4227   -5.9079 N   0  0  0  0  0  0  0  0  0  0  0  0
    5.1613   -0.7718   -7.1684 C   0  0  0  0  0  0  0  0  0  0  0  0
    5.2158   -2.1141   -7.5687 C   0  0  0  0  0  0  0  0  0  0  0  0
    5.8156   -2.4818   -8.7707 C   0  0  0  0  0  0  0  0  0  0  0  0
    6.3601   -1.5030   -9.5973 C   0  0  0  0  0  0  0  0  0  0  0  0
    6.2784   -0.1625   -9.2242 C   0  0  0  0  0  0  0  0  0  0  0  0
    7.0281    1.1635  -10.3460 Br  0  0  0  0  0  0  0  0  0  0  0  0
    5.6719    0.2115   -8.0231 C   0  0  0  0  0  0  0  0  0  0  0  0
    4.2601   -0.8134   -3.5270 C   0  0  0  0  0  0  0  0  0  0  0  0
    3.0923   -0.0177   -3.4496 C   0  0  0  0  0  0  0  0  0  0  0  0
    2.5100    0.2823   -2.2174 C   0  0  0  0  0  0  0  0  0  0  0  0
    1.4206    1.1160   -2.3050 O   0  0  0  0  0  0  0  0  0  0  0  0
    1.3497    2.0921   -1.2709 C   0  0  0  0  0  0  0  0  0  0  0  0
    0.3406    3.1845   -1.6221 C   0  0  0  0  0  0  0  0  0  0  0  0
    0.2980    4.1865   -0.4679 C   0  0  0  0  0  0  0  0  0  0  0  0
   -0.7366    5.2872   -0.6606 C   0  0  0  0  0  0  0  0  0  0  0  0
   -0.7390    6.2335    0.5417 C   0  0  0  0  0  0  0  0  0  0  0  0
   -1.7792    7.3200    0.4007 C   0  0  0  0  0  0  0  0  0  0  0  0
   -2.5331    7.4416   -0.5611 O   0  0  0  0  0  0  0  0  0  0  0  0
   -1.8261    8.1849    1.4717 N   0  0  0  0  0  0  0  0  0  0  0  0
   -2.7144    9.2743    1.3134 O   0  0  0  0  0  0  0  0  0  0  0  0
    3.2102    0.9625    1.8697 H   0  0  0  0  0  0  0  0  0  0  0  0
    4.5033    0.2129    0.9444 H   0  0  0  0  0  0  0  0  0  0  0  0
    3.3491   -0.8085    1.8658 H   0  0  0  0  0  0  0  0  0  0  0  0
    4.5108   -1.6861   -0.2885 H   0  0  0  0  0  0  0  0  0  0  0  0
    7.3349   -3.0182   -3.5239 H   0  0  0  0  0  0  0  0  0  0  0  0
    4.5990    0.5816   -5.7603 H   0  0  0  0  0  0  0  0  0  0  0  0
    4.8067   -2.8868   -6.9195 H   0  0  0  0  0  0  0  0  0  0  0  0
    5.8698   -3.5305   -9.0468 H   0  0  0  0  0  0  0  0  0  0  0  0
    6.8490   -1.7958  -10.5221 H   0  0  0  0  0  0  0  0  0  0  0  0
    5.6339    1.2591   -7.7414 H   0  0  0  0  0  0  0  0  0  0  0  0
    2.6483    0.3970   -4.3525 H   0  0  0  0  0  0  0  0  0  0  0  0
    2.3351    2.5526   -1.1227 H   0  0  0  0  0  0  0  0  0  0  0  0
    1.0022    1.6241   -0.3451 H   0  0  0  0  0  0  0  0  0  0  0  0
   -0.6470    2.7366   -1.7880 H   0  0  0  0  0  0  0  0  0  0  0  0
    0.6175    3.6759   -2.5625 H   0  0  0  0  0  0  0  0  0  0  0  0
    1.2909    4.6374   -0.3471 H   0  0  0  0  0  0  0  0  0  0  0  0
    0.0768    3.6501    0.4637 H   0  0  0  0  0  0  0  0  0  0  0  0
   -1.7320    4.8435   -0.7846 H   0  0  0  0  0  0  0  0  0  0  0  0
   -0.5197    5.8491   -1.5769 H   0  0  0  0  0  0  0  0  0  0  0  0
    0.2448    6.7056    0.6510 H   0  0  0  0  0  0  0  0  0  0  0  0
   -0.9511    5.6729    1.4604 H   0  0  0  0  0  0  0  0  0  0  0  0
   -1.0389    8.3293    2.0921 H   0  0  0  0  0  0  0  0  0  0  0  0
   -3.1303    9.0814    0.4425 H   0  0  0  0  0  0  0  0  0  0  0  0
  1  2  1  0  0  0  0
  1 31  1  0  0  0  0
  1 32  1  0  0  0  0
  1 33  1  0  0  0  0
  2  3  1  0  0  0  0
  3  4  1  0  0  0  0
  3 20  2  0  0  0  0
  4  5  2  0  0  0  0
  4 34  1  0  0  0  0
  5  6  1  0  0  0  0
  5 18  1  0  0  0  0
  6  7  2  0  0  0  0
  7  8  1  0  0  0  0
  7 35  1  0  0  0  0
  8  9  2  0  0  0  0
  9 10  1  0  0  0  0
  9 18  1  0  0  0  0
 10 11  1  0  0  0  0
 10 36  1  0  0  0  0
 11 12  1  0  0  0  0
 11 17  2  0  0  0  0
 12 13  2  0  0  0  0
 12 37  1  0  0  0  0
 13 14  1  0  0  0  0
 13 38  1  0  0  0  0
 14 15  2  0  0  0  0
 14 39  1  0  0  0  0
 15 16  1  0  0  0  0
 15 17  1  0  0  0  0
 17 40  1  0  0  0  0
 18 19  2  0  0  0  0
 19 20  1  0  0  0  0
 19 41  1  0  0  0  0
 20 21  1  0  0  0  0
 21 22  1  0  0  0  0
 22 23  1  0  0  0  0
 22 42  1  0  0  0  0
 22 43  1  0  0  0  0
 23 24  1  0  0  0  0
 23 44  1  0  0  0  0
 23 45  1  0  0  0  0
 24 25  1  0  0  0  0
 24 46  1  0  0  0  0
 24 47  1  0  0  0  0
 25 26  1  0  0  0  0
 25 48  1  0  0  0  0
 25 49  1  0  0  0  0
 26 27  1  0  0  0  0
 26 50  1  0  0  0  0
 26 51  1  0  0  0  0
 27 28  2  0  0  0  0
 27 29  1  0  0  0  0
 29 30  1  0  0  0  0
 29 52  1  0  0  0  0
 30 53  1  0  0  0  0
M  END
$$$$
