CHEMBL423072
 OpenBabel04072215383D

 34 37  0  0  0  0  0  0  0  0999 V2000
    1.3463   -0.2699    0.2708 C   0  0  0  0  0  0  0  0  0  0  0  0
    0.7886    0.9021    0.7817 C   0  0  0  0  0  0  0  0  0  0  0  0
   -0.5735    1.1571    0.6186 C   0  0  0  0  0  0  0  0  0  0  0  0
   -1.3829    0.2428   -0.0663 C   0  0  0  0  0  0  0  0  0  0  0  0
   -2.8288    0.4768   -0.1933 C   0  0  0  0  0  0  0  0  0  0  0  0
   -3.7749   -0.0220    0.8036 C   0  0  0  0  0  0  0  0  0  0  0  0
   -5.0870    0.2041    0.6506 C   0  0  0  0  0  0  0  0  0  0  0  0
   -5.5481    0.8871   -0.4796 N   0  0  0  0  0  0  0  0  0  0  0  0
   -6.8417    1.1930   -0.9004 C   0  0  0  0  0  0  0  0  0  0  0  0
   -8.1022    0.8114   -0.2481 C   0  0  0  0  0  0  0  0  0  0  0  0
   -9.2143    1.6573   -0.3129 C   0  0  0  0  0  0  0  0  0  0  0  0
  -10.3940    1.2613    0.3019 C   0  0  0  0  0  0  0  0  0  0  0  0
  -10.5401    0.1047    0.9799 N   0  0  0  0  0  0  0  0  0  0  0  0
   -9.4661   -0.7074    1.0159 C   0  0  0  0  0  0  0  0  0  0  0  0
   -8.2568   -0.4118    0.4085 C   0  0  0  0  0  0  0  0  0  0  0  0
   -6.6423    1.9254   -2.0630 C   0  0  0  0  0  0  0  0  0  0  0  0
   -5.3181    2.0468   -2.3851 N   0  0  0  0  0  0  0  0  0  0  0  0
   -4.6749    1.4045   -1.4369 C   0  0  0  0  0  0  0  0  0  0  0  0
   -3.2824    1.1759   -1.2608 C   0  0  0  0  0  0  0  0  0  0  0  0
   -0.8148   -0.9263   -0.5879 C   0  0  0  0  0  0  0  0  0  0  0  0
    0.5464   -1.1823   -0.4158 C   0  0  0  0  0  0  0  0  0  0  0  0
    2.4051   -0.4721    0.4082 H   0  0  0  0  0  0  0  0  0  0  0  0
    1.4142    1.6149    1.3133 H   0  0  0  0  0  0  0  0  0  0  0  0
   -1.0015    2.0671    1.0316 H   0  0  0  0  0  0  0  0  0  0  0  0
   -3.3888   -0.5669    1.6611 H   0  0  0  0  0  0  0  0  0  0  0  0
   -5.8025   -0.1287    1.3890 H   0  0  0  0  0  0  0  0  0  0  0  0
   -9.1795    2.6112   -0.8280 H   0  0  0  0  0  0  0  0  0  0  0  0
  -11.2825    1.8868    0.2619 H   0  0  0  0  0  0  0  0  0  0  0  0
   -9.6039   -1.6372    1.5592 H   0  0  0  0  0  0  0  0  0  0  0  0
   -7.4658   -1.1544    0.4458 H   0  0  0  0  0  0  0  0  0  0  0  0
   -7.4001    2.3570   -2.7017 H   0  0  0  0  0  0  0  0  0  0  0  0
   -2.6064    1.5696   -2.0148 H   0  0  0  0  0  0  0  0  0  0  0  0
   -1.4306   -1.6450   -1.1246 H   0  0  0  0  0  0  0  0  0  0  0  0
    0.9811   -2.0957   -0.8134 H   0  0  0  0  0  0  0  0  0  0  0  0
  1  2  1  0  0  0  0
  1 21  2  0  0  0  0
  1 22  1  0  0  0  0
  2  3  2  0  0  0  0
  2 23  1  0  0  0  0
  3  4  1  0  0  0  0
  3 24  1  0  0  0  0
  4  5  1  0  0  0  0
  4 20  2  0  0  0  0
  5  6  1  0  0  0  0
  5 19  2  0  0  0  0
  6  7  2  0  0  0  0
  6 25  1  0  0  0  0
  7  8  1  0  0  0  0
  7 26  1  0  0  0  0
  8  9  1  0  0  0  0
  8 18  1  0  0  0  0
  9 10  1  0  0  0  0
  9 16  2  0  0  0  0
 10 11  1  0  0  0  0
 10 15  2  0  0  0  0
 11 12  2  0  0  0  0
 11 27  1  0  0  0  0
 12 13  1  0  0  0  0
 12 28  1  0  0  0  0
 13 14  2  0  0  0  0
 14 15  1  0  0  0  0
 14 29  1  0  0  0  0
 15 30  1  0  0  0  0
 16 17  1  0  0  0  0
 16 31  1  0  0  0  0
 17 18  2  0  0  0  0
 18 19  1  0  0  0  0
 19 32  1  0  0  0  0
 20 21  1  0  0  0  0
 20 33  1  0  0  0  0
 21 34  1  0  0  0  0
M  END
$$$$
