CHEMBL3656103
 OpenBabel04072215373D

 67 70  0  0  0  0  0  0  0  0999 V2000
   -7.5913  -16.2062   -0.1225 C   0  0  0  0  0  0  0  0  0  0  0  0
   -7.8373  -14.8226    0.4035 C   0  0  0  0  0  0  0  0  0  0  0  0
   -7.9725  -14.6273    1.7819 C   0  0  0  0  0  0  0  0  0  0  0  0
   -8.2049  -13.3558    2.2847 C   0  0  0  0  0  0  0  0  0  0  0  0
   -8.3024  -12.2696    1.4165 C   0  0  0  0  0  0  0  0  0  0  0  0
   -8.1519  -12.4248    0.0333 C   0  0  0  0  0  0  0  0  0  0  0  0
   -8.2309  -11.3354   -0.8756 N   0  0  0  0  0  0  0  0  0  0  0  0
   -8.3378  -10.0010   -0.5130 C   0  0  0  0  0  0  0  0  0  0  0  0
   -8.2988   -9.5791    0.6399 O   0  0  0  0  0  0  0  0  0  0  0  0
   -8.5500   -9.1619   -1.6007 N   0  0  0  0  0  0  0  0  0  0  0  0
   -8.7651   -7.7797   -1.3508 C   0  0  0  0  0  0  0  0  0  0  0  0
   -7.8929   -7.0376   -0.5432 C   0  0  0  0  0  0  0  0  0  0  0  0
   -8.1909   -5.7106   -0.2044 C   0  0  0  0  0  0  0  0  0  0  0  0
   -9.3669   -5.1267   -0.6705 C   0  0  0  0  0  0  0  0  0  0  0  0
   -9.6181   -3.8321   -0.2668 O   0  0  0  0  0  0  0  0  0  0  0  0
  -10.3480   -3.0081   -1.0985 C   0  0  0  0  0  0  0  0  0  0  0  0
  -10.1848   -2.9998   -2.4809 C   0  0  0  0  0  0  0  0  0  0  0  0
  -11.0111   -2.1843   -3.2259 C   0  0  0  0  0  0  0  0  0  0  0  0
  -11.9219   -1.3485   -2.6861 N   0  0  0  0  0  0  0  0  0  0  0  0
  -12.0112   -1.3157   -1.3313 C   0  0  0  0  0  0  0  0  0  0  0  0
  -12.9713   -0.3303   -0.8360 C   0  0  0  0  0  0  0  0  0  0  0  0
  -13.3561    0.0639    0.4367 C   0  0  0  0  0  0  0  0  0  0  0  0
  -14.3150    1.1244    0.3266 C   0  0  0  0  0  0  0  0  0  0  0  0
  -15.0040    1.9082    1.3577 C   0  0  0  0  0  0  0  0  0  0  0  0
  -15.8265    2.7719    1.0741 O   0  0  0  0  0  0  0  0  0  0  0  0
  -14.6384    1.6099    2.6430 N   0  0  0  0  0  0  0  0  0  0  0  0
  -15.2907    2.4025    3.9067 S   0  0  3  0  0  0  0  0  0  0  0  0
  -17.0152    2.3544    4.0768 C   0  0  0  0  0  0  0  0  0  0  0  0
  -14.8321    1.7820    5.1235 O   0  0  0  0  0  0  0  0  0  0  0  0
  -14.7041    4.0203    4.1482 C   0  0  0  0  0  0  0  0  0  0  0  0
  -14.9517    5.0061    5.2601 C   0  0  0  0  0  0  0  0  0  0  0  0
  -16.1409    5.8935    5.0080 C   0  0  0  0  0  0  0  0  0  0  0  0
  -16.8618    5.8346    4.0263 O   0  0  0  0  0  0  0  0  0  0  0  0
  -16.3517    6.7790    6.0087 O   0  0  0  0  0  0  0  0  0  0  0  0
  -14.4994    1.3146   -1.0311 C   0  0  0  0  0  0  0  0  0  0  0  0
  -13.6965    0.4486   -1.7122 N   0  0  0  0  0  0  0  0  0  0  0  0
  -11.2487   -2.1285   -0.5017 C   0  0  0  0  0  0  0  0  0  0  0  0
  -10.2479   -5.8798   -1.4596 C   0  0  0  0  0  0  0  0  0  0  0  0
   -9.9240   -7.1824   -1.8439 C   0  0  0  0  0  0  0  0  0  0  0  0
   -7.9258  -13.7155   -0.4663 C   0  0  0  0  0  0  0  0  0  0  0  0
   -7.5672  -16.9415    0.6913 H   0  0  0  0  0  0  0  0  0  0  0  0
   -6.6276  -16.2524   -0.6377 H   0  0  0  0  0  0  0  0  0  0  0  0
   -8.3918  -16.5001   -0.8084 H   0  0  0  0  0  0  0  0  0  0  0  0
   -7.8989  -15.4629    2.4739 H   0  0  0  0  0  0  0  0  0  0  0  0
   -8.3126  -13.1949    3.3540 H   0  0  0  0  0  0  0  0  0  0  0  0
   -8.4986  -11.3086    1.8747 H   0  0  0  0  0  0  0  0  0  0  0  0
   -8.0715  -11.5391   -1.8529 H   0  0  0  0  0  0  0  0  0  0  0  0
   -9.1250   -9.5732   -2.3218 H   0  0  0  0  0  0  0  0  0  0  0  0
   -6.9909   -7.4953   -0.1420 H   0  0  0  0  0  0  0  0  0  0  0  0
   -7.5162   -5.1584    0.4417 H   0  0  0  0  0  0  0  0  0  0  0  0
   -9.4581   -3.6354   -2.9742 H   0  0  0  0  0  0  0  0  0  0  0  0
  -10.9632   -2.1867   -4.3113 H   0  0  0  0  0  0  0  0  0  0  0  0
  -12.9684   -0.3629    1.3517 H   0  0  0  0  0  0  0  0  0  0  0  0
  -13.9571    0.9040    2.8620 H   0  0  0  0  0  0  0  0  0  0  0  0
  -17.3413    1.3128    4.0870 H   0  0  0  0  0  0  0  0  0  0  0  0
  -17.4754    2.8822    3.2407 H   0  0  0  0  0  0  0  0  0  0  0  0
  -17.2962    2.8372    5.0156 H   0  0  0  0  0  0  0  0  0  0  0  0
  -14.1058    4.4137    3.3081 H   0  0  0  0  0  0  0  0  0  0  0  0
  -14.0558    5.6229    5.3741 H   0  0  0  0  0  0  0  0  0  0  0  0
  -15.1368    4.4382    6.1776 H   0  0  0  0  0  0  0  0  0  0  0  0
  -15.7133    6.7070    6.7453 H   0  0  0  0  0  0  0  0  0  0  0  0
  -15.1320    2.0188   -1.5636 H   0  0  0  0  0  0  0  0  0  0  0  0
  -13.6047    0.3723   -2.7203 H   0  0  0  0  0  0  0  0  0  0  0  0
  -11.3480   -2.0909    0.5755 H   0  0  0  0  0  0  0  0  0  0  0  0
  -11.2045   -5.4686   -1.7676 H   0  0  0  0  0  0  0  0  0  0  0  0
  -10.6297   -7.7413   -2.4497 H   0  0  0  0  0  0  0  0  0  0  0  0
   -7.8118  -13.8777   -1.5348 H   0  0  0  0  0  0  0  0  0  0  0  0
  1  2  1  0  0  0  0
  1 41  1  0  0  0  0
  1 42  1  0  0  0  0
  1 43  1  0  0  0  0
  2  3  1  0  0  0  0
  2 40  2  0  0  0  0
  3  4  2  0  0  0  0
  3 44  1  0  0  0  0
  4  5  1  0  0  0  0
  4 45  1  0  0  0  0
  5  6  2  0  0  0  0
  5 46  1  0  0  0  0
  6  7  1  0  0  0  0
  6 40  1  0  0  0  0
  7  8  1  0  0  0  0
  7 47  1  0  0  0  0
  8  9  2  0  0  0  0
  8 10  1  0  0  0  0
 10 11  1  0  0  0  0
 10 48  1  0  0  0  0
 11 12  1  0  0  0  0
 11 39  2  0  0  0  0
 12 13  2  0  0  0  0
 12 49  1  0  0  0  0
 13 14  1  0  0  0  0
 13 50  1  0  0  0  0
 14 15  1  0  0  0  0
 14 38  2  0  0  0  0
 15 16  1  0  0  0  0
 16 17  1  0  0  0  0
 16 37  2  0  0  0  0
 17 18  2  0  0  0  0
 17 51  1  0  0  0  0
 18 19  1  0  0  0  0
 18 52  1  0  0  0  0
 19 20  2  0  0  0  0
 20 21  1  0  0  0  0
 20 37  1  0  0  0  0
 21 22  2  0  0  0  0
 21 36  1  0  0  0  0
 22 23  1  0  0  0  0
 22 53  1  0  0  0  0
 23 24  1  0  0  0  0
 23 35  2  0  0  0  0
 24 25  2  0  0  0  0
 24 26  1  0  0  0  0
 26 27  1  0  0  0  0
 26 54  1  0  0  0  0
 27 28  1  0  0  0  0
 27 29  2  0  0  0  0
 27 30  2  0  0  0  0
 28 55  1  0  0  0  0
 28 56  1  0  0  0  0
 28 57  1  0  0  0  0
 30 31  1  0  0  0  0
 30 58  1  0  0  0  0
 31 32  1  0  0  0  0
 31 59  1  0  0  0  0
 31 60  1  0  0  0  0
 32 33  2  0  0  0  0
 32 34  1  0  0  0  0
 34 61  1  0  0  0  0
 35 36  1  0  0  0  0
 35 62  1  0  0  0  0
 36 63  1  0  0  0  0
 37 64  1  0  0  0  0
 38 39  1  0  0  0  0
 38 65  1  0  0  0  0
 39 66  1  0  0  0  0
 40 67  1  0  0  0  0
M  END
$$$$
