CHEMBL1940860
 OpenBabel04072215363D

 33 35  0  0  0  0  0  0  0  0999 V2000
    0.9792    0.1567   -0.0747 C   0  0  0  0  0  0  0  0  0  0  0  0
    2.4774    0.1649   -0.0006 C   0  0  0  0  0  0  0  0  0  0  0  0
    3.1993    1.3587    0.0128 C   0  0  0  0  0  0  0  0  0  0  0  0
    4.5930    1.3317    0.0888 C   0  0  0  0  0  0  0  0  0  0  0  0
    5.2817    0.1073    0.1454 C   0  0  0  0  0  0  0  0  0  0  0  0
    6.6854    0.0361    0.2077 C   0  0  0  0  0  0  0  0  0  0  0  0
    7.3455   -1.2001    0.2359 C   0  0  0  0  0  0  0  0  0  0  0  0
    8.8226   -1.1790    0.2487 C   0  0  0  0  0  0  0  0  0  0  0  0
    9.5988   -2.0847    0.8625 C   0  0  0  0  0  0  0  0  0  0  0  0
   11.0945   -2.0117    0.8197 C   0  0  0  0  0  0  0  0  0  0  0  0
   11.6444   -0.9377    0.5932 O   0  0  0  0  0  0  0  0  0  0  0  0
   11.7859   -3.2643    1.0892 C   0  0  0  0  0  0  0  0  0  0  0  0
   11.4007   -4.5602    0.7822 C   0  0  0  0  0  0  0  0  0  0  0  0
   12.3215   -5.5360    1.2682 C   0  0  0  0  0  0  0  0  0  0  0  0
   13.3751   -4.9398    1.9131 C   0  0  0  0  0  0  0  0  0  0  0  0
   14.9009   -5.9854    2.8040 I   0  0  0  0  0  0  0  0  0  0  0  0
   13.2958   -3.2453    1.9032 S   0  0  0  0  0  0  0  0  0  0  0  0
    6.5166   -2.3248    0.1760 C   0  0  0  0  0  0  0  0  0  0  0  0
    7.0934   -3.9468    0.0453 Cl  0  0  0  0  0  0  0  0  0  0  0  0
    5.1642   -2.2953    0.1479 N   0  0  0  0  0  0  0  0  0  0  0  0
    4.5609   -1.1010    0.1292 C   0  0  0  0  0  0  0  0  0  0  0  0
    3.1752   -1.0494    0.0705 C   0  0  0  0  0  0  0  0  0  0  0  0
    0.5816    1.1562   -0.2762 H   0  0  0  0  0  0  0  0  0  0  0  0
    0.5579   -0.1963    0.8720 H   0  0  0  0  0  0  0  0  0  0  0  0
    0.6444   -0.5016   -0.8836 H   0  0  0  0  0  0  0  0  0  0  0  0
    2.6845    2.3163   -0.0404 H   0  0  0  0  0  0  0  0  0  0  0  0
    5.1380    2.2738    0.0933 H   0  0  0  0  0  0  0  0  0  0  0  0
    7.2630    0.9594    0.2276 H   0  0  0  0  0  0  0  0  0  0  0  0
    9.2904   -0.3439   -0.2727 H   0  0  0  0  0  0  0  0  0  0  0  0
    9.1922   -2.9173    1.4262 H   0  0  0  0  0  0  0  0  0  0  0  0
   10.4964   -4.8068    0.2366 H   0  0  0  0  0  0  0  0  0  0  0  0
   12.1984   -6.6059    1.1490 H   0  0  0  0  0  0  0  0  0  0  0  0
    2.6242   -1.9885    0.0665 H   0  0  0  0  0  0  0  0  0  0  0  0
  1  2  1  0  0  0  0
  1 23  1  0  0  0  0
  1 24  1  0  0  0  0
  1 25  1  0  0  0  0
  2  3  1  0  0  0  0
  2 22  2  0  0  0  0
  3  4  2  0  0  0  0
  3 26  1  0  0  0  0
  4  5  1  0  0  0  0
  4 27  1  0  0  0  0
  5  6  1  0  0  0  0
  5 21  2  0  0  0  0
  6  7  2  0  0  0  0
  6 28  1  0  0  0  0
  7  8  1  0  0  0  0
  7 18  1  0  0  0  0
  8  9  2  0  0  0  0
  8 29  1  0  0  0  0
  9 10  1  0  0  0  0
  9 30  1  0  0  0  0
 10 11  2  0  0  0  0
 10 12  1  0  0  0  0
 12 13  2  0  0  0  0
 12 17  1  0  0  0  0
 13 14  1  0  0  0  0
 13 31  1  0  0  0  0
 14 15  2  0  0  0  0
 14 32  1  0  0  0  0
 15 16  1  0  0  0  0
 15 17  1  0  0  0  0
 18 19  1  0  0  0  0
 18 20  2  0  0  0  0
 20 21  1  0  0  0  0
 21 22  1  0  0  0  0
 22 33  1  0  0  0  0
M  END
$$$$
