CHEMBL3899151
 OpenBabel04072215373D

 64 67  0  0  0  0  0  0  0  0999 V2000
    0.7616   -3.9798   -1.3899 C   0  0  0  0  0  0  0  0  0  0  0  0
    2.1000   -4.3048   -1.0029 O   0  0  0  0  0  0  0  0  0  0  0  0
    2.9768   -3.2554   -0.8605 C   0  0  0  0  0  0  0  0  0  0  0  0
    2.6386   -1.9261   -1.1163 C   0  0  0  0  0  0  0  0  0  0  0  0
    3.5574   -0.9144   -0.8744 C   0  0  0  0  0  0  0  0  0  0  0  0
    3.3266    0.4246   -1.0544 O   0  0  0  0  0  0  0  0  0  0  0  0
    2.0500    0.7840   -1.5752 C   0  0  0  0  0  0  0  0  0  0  0  0
    4.8303   -1.2459   -0.3974 C   0  0  0  0  0  0  0  0  0  0  0  0
    5.2354   -2.5792   -0.1648 C   0  0  0  0  0  0  0  0  0  0  0  0
    6.5161   -2.8664    0.3831 N   0  0  0  0  0  0  0  0  0  0  0  0
    6.9825   -1.8417    1.4680 C   0  0  0  0  0  0  0  0  0  0  0  0
    6.0056   -1.5226    2.6603 C   0  0  0  0  0  0  0  0  0  0  0  0
    6.5441   -0.4200    3.6350 C   0  0  0  0  0  0  0  0  0  0  0  0
    5.5716   -0.0998    4.7077 N   0  0  0  0  0  0  0  0  0  0  0  0
    6.0630    0.9429    5.6352 C   0  0  0  0  0  0  0  0  0  0  0  0
    5.0484    1.2625    6.7458 C   0  0  0  0  0  0  0  0  0  0  0  0
    5.5955    2.3156    7.6637 C   0  0  0  0  0  0  0  0  0  0  0  0
    6.0048    3.1394    8.4107 N   0  0  0  0  0  0  0  0  0  0  0  0
    7.3993   -3.9901    0.1740 C   0  0  0  0  0  0  0  0  0  0  0  0
    7.8896   -4.5454    1.3301 C   0  0  0  0  0  0  0  0  0  0  0  0
    9.0997   -5.1569    1.2869 C   0  0  0  0  0  0  0  0  0  0  0  0
    9.8110   -5.3047    0.1295 C   0  0  0  0  0  0  0  0  0  0  0  0
   11.0501   -5.2468    0.4666 N   0  0  0  0  0  0  0  0  0  0  0  0
   11.9059   -6.1060   -0.0868 C   0  0  0  0  0  0  0  0  0  0  0  0
   11.5706   -6.9145   -1.1641 C   0  0  0  0  0  0  0  0  0  0  0  0
   12.4854   -8.1950   -0.9906 C   0  0  0  0  0  0  0  0  0  0  0  0
   12.7367   -8.7067    0.3639 C   0  0  0  0  0  0  0  0  0  0  0  0
   13.9357   -9.2361    0.5860 N   0  0  0  0  0  0  0  0  0  0  0  0
   14.5250   -9.2130   -0.6114 N   0  0  0  0  0  0  0  0  0  0  0  0
   15.8356   -9.8506   -0.6829 C   0  0  0  0  0  0  0  0  0  0  0  0
   13.7438   -8.5286   -1.5615 C   0  0  0  0  0  0  0  0  0  0  0  0
   10.3137   -6.6063   -1.7809 N   0  0  0  0  0  0  0  0  0  0  0  0
    9.2856   -5.5644   -1.1038 C   0  0  0  0  0  0  0  0  0  0  0  0
    7.9858   -4.5971   -1.0476 C   0  0  0  0  0  0  0  0  0  0  0  0
    4.2763   -3.5771   -0.4096 C   0  0  0  0  0  0  0  0  0  0  0  0
    0.1598   -4.8928   -1.3556 H   0  0  0  0  0  0  0  0  0  0  0  0
    0.7338   -3.6017   -2.4186 H   0  0  0  0  0  0  0  0  0  0  0  0
    0.2978   -3.2628   -0.7007 H   0  0  0  0  0  0  0  0  0  0  0  0
    1.6574   -1.6778   -1.4958 H   0  0  0  0  0  0  0  0  0  0  0  0
    2.0128    1.8728   -1.6710 H   0  0  0  0  0  0  0  0  0  0  0  0
    1.2468    0.4836   -0.8929 H   0  0  0  0  0  0  0  0  0  0  0  0
    1.8994    0.3564   -2.5728 H   0  0  0  0  0  0  0  0  0  0  0  0
    5.5092   -0.4204   -0.2041 H   0  0  0  0  0  0  0  0  0  0  0  0
    7.2415   -0.9060    0.9599 H   0  0  0  0  0  0  0  0  0  0  0  0
    7.9279   -2.1593    1.9251 H   0  0  0  0  0  0  0  0  0  0  0  0
    5.8170   -2.4341    3.2400 H   0  0  0  0  0  0  0  0  0  0  0  0
    5.0349   -1.1780    2.2899 H   0  0  0  0  0  0  0  0  0  0  0  0
    6.7556    0.4947    3.0682 H   0  0  0  0  0  0  0  0  0  0  0  0
    7.4827   -0.7579    4.0915 H   0  0  0  0  0  0  0  0  0  0  0  0
    5.3536   -0.9484    5.2297 H   0  0  0  0  0  0  0  0  0  0  0  0
    6.2757    1.8635    5.0772 H   0  0  0  0  0  0  0  0  0  0  0  0
    7.0016    0.6147    6.1007 H   0  0  0  0  0  0  0  0  0  0  0  0
    4.8184    0.3690    7.3262 H   0  0  0  0  0  0  0  0  0  0  0  0
    4.1054    1.6202    6.3117 H   0  0  0  0  0  0  0  0  0  0  0  0
    7.4905   -4.3180    2.3130 H   0  0  0  0  0  0  0  0  0  0  0  0
    9.6118   -5.3917    2.2065 H   0  0  0  0  0  0  0  0  0  0  0  0
   12.6671   -6.3322    0.5951 H   0  0  0  0  0  0  0  0  0  0  0  0
   12.1489   -8.5201    1.2528 H   0  0  0  0  0  0  0  0  0  0  0  0
   16.1745  -10.1188    0.3336 H   0  0  0  0  0  0  0  0  0  0  0  0
   16.5887   -9.1881   -1.1155 H   0  0  0  0  0  0  0  0  0  0  0  0
   15.7437  -10.7816   -1.2469 H   0  0  0  0  0  0  0  0  0  0  0  0
   14.2017   -8.3260   -2.5214 H   0  0  0  0  0  0  0  0  0  0  0  0
    7.5531   -4.2900   -2.0147 H   0  0  0  0  0  0  0  0  0  0  0  0
    4.5082   -4.6160   -0.1909 H   0  0  0  0  0  0  0  0  0  0  0  0
  1  2  1  0  0  0  0
  1 36  1  0  0  0  0
  1 37  1  0  0  0  0
  1 38  1  0  0  0  0
  2  3  1  0  0  0  0
  3  4  1  0  0  0  0
  3 35  2  0  0  0  0
  4  5  2  0  0  0  0
  4 39  1  0  0  0  0
  5  6  1  0  0  0  0
  5  8  1  0  0  0  0
  6  7  1  0  0  0  0
  7 40  1  0  0  0  0
  7 41  1  0  0  0  0
  7 42  1  0  0  0  0
  8  9  2  0  0  0  0
  8 43  1  0  0  0  0
  9 10  1  0  0  0  0
  9 35  1  0  0  0  0
 10 11  1  0  0  0  0
 10 19  1  0  0  0  0
 11 12  1  0  0  0  0
 11 44  1  0  0  0  0
 11 45  1  0  0  0  0
 12 13  1  0  0  0  0
 12 46  1  0  0  0  0
 12 47  1  0  0  0  0
 13 14  1  0  0  0  0
 13 48  1  0  0  0  0
 13 49  1  0  0  0  0
 14 15  1  0  0  0  0
 14 50  1  0  0  0  0
 15 16  1  0  0  0  0
 15 51  1  0  0  0  0
 15 52  1  0  0  0  0
 16 17  1  0  0  0  0
 16 53  1  0  0  0  0
 16 54  1  0  0  0  0
 17 18  3  0  0  0  0
 19 20  1  0  0  0  0
 19 34  2  0  0  0  0
 20 21  2  0  0  0  0
 20 55  1  0  0  0  0
 21 22  1  0  0  0  0
 21 56  1  0  0  0  0
 22 23  1  0  0  0  0
 22 33  2  0  0  0  0
 23 24  2  0  0  0  0
 24 25  1  0  0  0  0
 24 57  1  0  0  0  0
 25 26  1  0  0  0  0
 25 32  2  0  0  0  0
 26 27  1  0  0  0  0
 26 31  2  0  0  0  0
 27 28  2  0  0  0  0
 27 58  1  0  0  0  0
 28 29  1  0  0  0  0
 29 30  1  0  0  0  0
 29 31  1  0  0  0  0
 30 59  1  0  0  0  0
 30 60  1  0  0  0  0
 30 61  1  0  0  0  0
 31 62  1  0  0  0  0
 32 33  1  0  0  0  0
 33 34  1  0  0  0  0
 34 63  1  0  0  0  0
 35 64  1  0  0  0  0
M  END
$$$$
