CHEMBL2011303
 OpenBabel04072215363D

 30 32  0  0  0  0  0  0  0  0999 V2000
    0.9828    0.1774    0.3836 N   0  0  0  0  0  0  0  0  0  0  0  0
    2.3218    0.1569    0.1632 C   0  0  0  0  0  0  0  0  0  0  0  0
    3.1662    1.2373    0.1060 C   0  0  0  0  0  0  0  0  0  0  0  0
    4.4727    0.7089    0.0399 C   0  0  0  0  0  0  0  0  0  0  0  0
    5.7291    1.4608    0.0666 C   0  0  0  0  0  0  0  0  0  0  0  0
    6.8746    0.9135    0.6498 C   0  0  0  0  0  0  0  0  0  0  0  0
    8.0219    1.6879    0.7049 C   0  0  0  0  0  0  0  0  0  0  0  0
    8.1064    2.9462    0.2212 N   0  0  0  0  0  0  0  0  0  0  0  0
    6.9931    3.4469   -0.3491 C   0  0  0  0  0  0  0  0  0  0  0  0
    5.7961    2.7584   -0.4476 C   0  0  0  0  0  0  0  0  0  0  0  0
    4.4440   -0.6287   -0.0143 N   0  0  0  0  0  0  0  0  0  0  0  0
    3.1300   -0.9814    0.0331 N   0  0  0  0  0  0  0  0  0  0  0  0
    2.7563   -2.3586   -0.0348 C   0  0  0  0  0  0  0  0  0  0  0  0
    3.5313   -3.3470    0.6139 C   0  0  0  0  0  0  0  0  0  0  0  0
    4.9163   -3.0291    1.6121 Cl  0  0  0  0  0  0  0  0  0  0  0  0
    3.1538   -4.6994    0.5647 C   0  0  0  0  0  0  0  0  0  0  0  0
    2.0045   -5.0828   -0.1092 C   0  0  0  0  0  0  0  0  0  0  0  0
    1.5390   -6.7364   -0.1432 Cl  0  0  0  0  0  0  0  0  0  0  0  0
    1.2389   -4.1341   -0.7673 C   0  0  0  0  0  0  0  0  0  0  0  0
    1.6240   -2.7847   -0.7600 C   0  0  0  0  0  0  0  0  0  0  0  0
    0.7081   -1.7853   -1.8420 Cl  0  0  0  0  0  0  0  0  0  0  0  0
    0.4781    1.0492    0.2303 H   0  0  0  0  0  0  0  0  0  0  0  0
    0.4037   -0.6251    0.1453 H   0  0  0  0  0  0  0  0  0  0  0  0
    2.8802    2.2755    0.1871 H   0  0  0  0  0  0  0  0  0  0  0  0
    6.8701   -0.0875    1.0707 H   0  0  0  0  0  0  0  0  0  0  0  0
    8.9299    1.3083    1.1651 H   0  0  0  0  0  0  0  0  0  0  0  0
    7.0891    4.4604   -0.7367 H   0  0  0  0  0  0  0  0  0  0  0  0
    4.9443    3.2317   -0.9213 H   0  0  0  0  0  0  0  0  0  0  0  0
    3.7578   -5.4521    1.0690 H   0  0  0  0  0  0  0  0  0  0  0  0
    0.3542   -4.4495   -1.3176 H   0  0  0  0  0  0  0  0  0  0  0  0
  1  2  1  0  0  0  0
  1 22  1  0  0  0  0
  1 23  1  0  0  0  0
  2  3  2  0  0  0  0
  2 12  1  0  0  0  0
  3  4  1  0  0  0  0
  3 24  1  0  0  0  0
  4  5  1  0  0  0  0
  4 11  2  0  0  0  0
  5  6  1  0  0  0  0
  5 10  2  0  0  0  0
  6  7  2  0  0  0  0
  6 25  1  0  0  0  0
  7  8  1  0  0  0  0
  7 26  1  0  0  0  0
  8  9  2  0  0  0  0
  9 10  1  0  0  0  0
  9 27  1  0  0  0  0
 10 28  1  0  0  0  0
 11 12  1  0  0  0  0
 12 13  1  0  0  0  0
 13 14  1  0  0  0  0
 13 20  2  0  0  0  0
 14 15  1  0  0  0  0
 14 16  2  0  0  0  0
 16 17  1  0  0  0  0
 16 29  1  0  0  0  0
 17 18  1  0  0  0  0
 17 19  2  0  0  0  0
 19 20  1  0  0  0  0
 19 30  1  0  0  0  0
 20 21  1  0  0  0  0
M  END
$$$$
