CHEMBL3690588
 OpenBabel04072215373D

 52 55  0  0  0  0  0  0  0  0999 V2000
    0.8220    1.1111    0.5682 C   0  0  0  0  0  0  0  0  0  0  0  0
    2.3038    1.3932    0.7233 C   0  0  0  0  0  0  0  0  0  0  0  0
    2.9299    0.2364    1.2800 O   0  0  0  0  0  0  0  0  0  0  0  0
    4.2693    0.3280    1.4950 C   0  0  0  0  0  0  0  0  0  0  0  0
    5.0930    1.4029    1.2426 C   0  0  0  0  0  0  0  0  0  0  0  0
    6.4192    1.4158    1.4978 N   0  0  0  0  0  0  0  0  0  0  0  0
    6.9420    0.2872    2.0131 C   0  0  0  0  0  0  0  0  0  0  0  0
    8.3989    0.2532    2.2859 C   0  0  0  0  0  0  0  0  0  0  0  0
    9.1754   -0.9919    2.2304 C   0  0  0  0  0  0  0  0  0  0  0  0
   10.4953   -0.9791    2.4802 C   0  0  0  0  0  0  0  0  0  0  0  0
   11.1219    0.2169    2.8350 N   0  0  0  0  0  0  0  0  0  0  0  0
   12.4397    0.4992    3.1829 C   0  0  0  0  0  0  0  0  0  0  0  0
   13.5844   -0.4237    3.2640 C   0  0  0  0  0  0  0  0  0  0  0  0
   14.8496    0.0651    2.9022 C   0  0  0  0  0  0  0  0  0  0  0  0
   15.9794   -0.7401    2.9831 C   0  0  0  0  0  0  0  0  0  0  0  0
   15.8673   -2.0526    3.4312 C   0  0  0  0  0  0  0  0  0  0  0  0
   14.6322   -2.5717    3.8259 C   0  0  0  0  0  0  0  0  0  0  0  0
   14.4808   -3.8945    4.3142 N   0  0  0  0  0  0  0  0  0  0  0  0
   15.4953   -4.7879    4.5657 C   0  0  0  0  0  0  0  0  0  0  0  0
   16.7023   -4.5943    4.4552 O   0  0  0  0  0  0  0  0  0  0  0  0
   15.0380   -6.0313    4.9427 N   0  0  0  0  0  0  0  0  0  0  0  0
   16.0354   -7.0639    5.2705 C   0  0  0  0  0  0  0  0  0  0  0  0
   16.7152   -6.9370    6.6432 C   0  0  0  0  0  0  0  0  0  0  0  0
   16.1293   -5.9944    7.4171 F   0  0  0  0  0  0  0  0  0  0  0  0
   16.6108   -8.1119    7.3154 F   0  0  0  0  0  0  0  0  0  0  0  0
   18.0290   -6.6492    6.5462 F   0  0  0  0  0  0  0  0  0  0  0  0
   13.4951   -1.7472    3.7398 C   0  0  0  0  0  0  0  0  0  0  0  0
   12.4366    1.8753    3.3832 C   0  0  0  0  0  0  0  0  0  0  0  0
   11.2047    2.4318    3.2004 N   0  0  0  0  0  0  0  0  0  0  0  0
   10.4250    1.4256    2.8802 C   0  0  0  0  0  0  0  0  0  0  0  0
    9.0331    1.4107    2.5842 C   0  0  0  0  0  0  0  0  0  0  0  0
    6.2381   -0.8262    2.2849 N   0  0  0  0  0  0  0  0  0  0  0  0
    4.9116   -0.7692    2.0273 C   0  0  0  0  0  0  0  0  0  0  0  0
    0.3085    1.9737    0.1339 H   0  0  0  0  0  0  0  0  0  0  0  0
    0.3696    0.8819    1.5385 H   0  0  0  0  0  0  0  0  0  0  0  0
    0.6592    0.2406   -0.0757 H   0  0  0  0  0  0  0  0  0  0  0  0
    2.4351    2.2527    1.3910 H   0  0  0  0  0  0  0  0  0  0  0  0
    2.7308    1.6147   -0.2623 H   0  0  0  0  0  0  0  0  0  0  0  0
    4.7285    2.3299    0.8136 H   0  0  0  0  0  0  0  0  0  0  0  0
    8.6589   -1.9086    1.9608 H   0  0  0  0  0  0  0  0  0  0  0  0
   11.0956   -1.8737    2.4075 H   0  0  0  0  0  0  0  0  0  0  0  0
   14.9751    1.0873    2.5515 H   0  0  0  0  0  0  0  0  0  0  0  0
   16.9535   -0.3474    2.7021 H   0  0  0  0  0  0  0  0  0  0  0  0
   16.7769   -2.6420    3.4531 H   0  0  0  0  0  0  0  0  0  0  0  0
   13.5407   -4.2026    4.5143 H   0  0  0  0  0  0  0  0  0  0  0  0
   14.1634   -6.0632    5.4471 H   0  0  0  0  0  0  0  0  0  0  0  0
   16.8065   -7.0585    4.4912 H   0  0  0  0  0  0  0  0  0  0  0  0
   15.5162   -8.0250    5.2018 H   0  0  0  0  0  0  0  0  0  0  0  0
   12.5389   -2.1314    4.0821 H   0  0  0  0  0  0  0  0  0  0  0  0
   13.2800    2.4975    3.6565 H   0  0  0  0  0  0  0  0  0  0  0  0
    8.5116    2.3621    2.6257 H   0  0  0  0  0  0  0  0  0  0  0  0
    4.3571   -1.6715    2.2724 H   0  0  0  0  0  0  0  0  0  0  0  0
  1  2  1  0  0  0  0
  1 34  1  0  0  0  0
  1 35  1  0  0  0  0
  1 36  1  0  0  0  0
  2  3  1  0  0  0  0
  2 37  1  0  0  0  0
  2 38  1  0  0  0  0
  3  4  1  0  0  0  0
  4  5  1  0  0  0  0
  4 33  2  0  0  0  0
  5  6  2  0  0  0  0
  5 39  1  0  0  0  0
  6  7  1  0  0  0  0
  7  8  1  0  0  0  0
  7 32  2  0  0  0  0
  8  9  1  0  0  0  0
  8 31  2  0  0  0  0
  9 10  2  0  0  0  0
  9 40  1  0  0  0  0
 10 11  1  0  0  0  0
 10 41  1  0  0  0  0
 11 12  1  0  0  0  0
 11 30  1  0  0  0  0
 12 13  1  0  0  0  0
 12 28  2  0  0  0  0
 13 14  1  0  0  0  0
 13 27  2  0  0  0  0
 14 15  2  0  0  0  0
 14 42  1  0  0  0  0
 15 16  1  0  0  0  0
 15 43  1  0  0  0  0
 16 17  2  0  0  0  0
 16 44  1  0  0  0  0
 17 18  1  0  0  0  0
 17 27  1  0  0  0  0
 18 19  1  0  0  0  0
 18 45  1  0  0  0  0
 19 20  2  0  0  0  0
 19 21  1  0  0  0  0
 21 22  1  0  0  0  0
 21 46  1  0  0  0  0
 22 23  1  0  0  0  0
 22 47  1  0  0  0  0
 22 48  1  0  0  0  0
 23 24  1  0  0  0  0
 23 25  1  0  0  0  0
 23 26  1  0  0  0  0
 27 49  1  0  0  0  0
 28 29  1  0  0  0  0
 28 50  1  0  0  0  0
 29 30  2  0  0  0  0
 30 31  1  0  0  0  0
 31 51  1  0  0  0  0
 32 33  1  0  0  0  0
 33 52  1  0  0  0  0
M  END
$$$$
