CHEMBL3690475
 OpenBabel04072215373D

 53 56  0  0  0  0  0  0  0  0999 V2000
    1.8129   -1.1289   -0.7380 C   0  0  0  0  0  0  0  0  0  0  0  0
    2.3434   -0.0391    0.0739 N   0  0  0  0  0  0  0  0  0  0  0  0
    1.5113    1.1518    0.2040 C   0  0  0  0  0  0  0  0  0  0  0  0
    3.0546   -0.4434    1.2142 C   0  0  0  0  0  0  0  0  0  0  0  0
    3.5941    0.4922    2.0890 C   0  0  0  0  0  0  0  0  0  0  0  0
    4.2768    0.0906    3.2377 C   0  0  0  0  0  0  0  0  0  0  0  0
    4.4109   -1.2589    3.5186 C   0  0  0  0  0  0  0  0  0  0  0  0
    5.0567   -1.7661    4.7563 C   0  0  0  0  0  0  0  0  0  0  0  0
    5.7726   -3.0496    4.8139 C   0  0  0  0  0  0  0  0  0  0  0  0
    6.3068   -3.4804    5.9718 C   0  0  0  0  0  0  0  0  0  0  0  0
    6.1575   -2.7169    7.1329 N   0  0  0  0  0  0  0  0  0  0  0  0
    6.5572   -2.9338    8.4488 C   0  0  0  0  0  0  0  0  0  0  0  0
    7.2543   -4.0960    9.0180 C   0  0  0  0  0  0  0  0  0  0  0  0
    8.1552   -3.8798   10.0729 C   0  0  0  0  0  0  0  0  0  0  0  0
    8.8004   -4.9433   10.6937 C   0  0  0  0  0  0  0  0  0  0  0  0
    8.5554   -6.2463   10.2718 C   0  0  0  0  0  0  0  0  0  0  0  0
    7.6516   -6.5068    9.2392 C   0  0  0  0  0  0  0  0  0  0  0  0
    7.3496   -7.8171    8.7912 N   0  0  0  0  0  0  0  0  0  0  0  0
    7.8092   -8.9916    9.3401 C   0  0  0  0  0  0  0  0  0  0  0  0
    8.5276   -9.1195   10.3189 O   0  0  0  0  0  0  0  0  0  0  0  0
    7.3965  -10.1001    8.6305 N   0  0  0  0  0  0  0  0  0  0  0  0
    7.7860  -11.4232    9.1381 C   0  0  0  0  0  0  0  0  0  0  0  0
    6.9719  -11.9511   10.3280 C   0  0  0  0  0  0  0  0  0  0  0  0
    5.8899  -11.1807   10.5860 F   0  0  0  0  0  0  0  0  0  0  0  0
    6.5053  -13.1953   10.0492 F   0  0  0  0  0  0  0  0  0  0  0  0
    7.7045  -12.0434   11.4568 F   0  0  0  0  0  0  0  0  0  0  0  0
    7.0050   -5.4216    8.6175 C   0  0  0  0  0  0  0  0  0  0  0  0
    6.1615   -1.7759    9.1094 C   0  0  0  0  0  0  0  0  0  0  0  0
    5.5268   -0.8937    8.2876 N   0  0  0  0  0  0  0  0  0  0  0  0
    5.5129   -1.4816    7.1154 C   0  0  0  0  0  0  0  0  0  0  0  0
    4.9486   -1.0350    5.8911 C   0  0  0  0  0  0  0  0  0  0  0  0
    3.9338   -2.1652    2.6449 N   0  0  0  0  0  0  0  0  0  0  0  0
    3.2646   -1.7503    1.4900 N   0  0  0  0  0  0  0  0  0  0  0  0
    1.1663   -0.7423   -1.5348 H   0  0  0  0  0  0  0  0  0  0  0  0
    1.2167   -1.8356   -0.1500 H   0  0  0  0  0  0  0  0  0  0  0  0
    2.6301   -1.6650   -1.2334 H   0  0  0  0  0  0  0  0  0  0  0  0
    0.8586    1.2793   -0.6663 H   0  0  0  0  0  0  0  0  0  0  0  0
    2.1313    2.0540    0.2509 H   0  0  0  0  0  0  0  0  0  0  0  0
    0.8733    1.1060    1.0942 H   0  0  0  0  0  0  0  0  0  0  0  0
    3.5025    1.5546    1.8968 H   0  0  0  0  0  0  0  0  0  0  0  0
    4.6885    0.8520    3.8910 H   0  0  0  0  0  0  0  0  0  0  0  0
    5.8632   -3.6314    3.9003 H   0  0  0  0  0  0  0  0  0  0  0  0
    6.8594   -4.4065    6.0355 H   0  0  0  0  0  0  0  0  0  0  0  0
    8.3635   -2.8748   10.4336 H   0  0  0  0  0  0  0  0  0  0  0  0
    9.4904   -4.7629   11.5141 H   0  0  0  0  0  0  0  0  0  0  0  0
    9.0930   -7.0389   10.7805 H   0  0  0  0  0  0  0  0  0  0  0  0
    6.7400   -7.8944    7.9936 H   0  0  0  0  0  0  0  0  0  0  0  0
    6.4984  -10.0335    8.1745 H   0  0  0  0  0  0  0  0  0  0  0  0
    8.8466  -11.3908    9.4161 H   0  0  0  0  0  0  0  0  0  0  0  0
    7.6962  -12.1114    8.2929 H   0  0  0  0  0  0  0  0  0  0  0  0
    6.2687   -5.6201    7.8445 H   0  0  0  0  0  0  0  0  0  0  0  0
    6.2974   -1.5429   10.1585 H   0  0  0  0  0  0  0  0  0  0  0  0
    4.4169   -0.0916    5.9402 H   0  0  0  0  0  0  0  0  0  0  0  0
  1  2  1  0  0  0  0
  1 34  1  0  0  0  0
  1 35  1  0  0  0  0
  1 36  1  0  0  0  0
  2  3  1  0  0  0  0
  2  4  1  0  0  0  0
  3 37  1  0  0  0  0
  3 38  1  0  0  0  0
  3 39  1  0  0  0  0
  4  5  1  0  0  0  0
  4 33  2  0  0  0  0
  5  6  2  0  0  0  0
  5 40  1  0  0  0  0
  6  7  1  0  0  0  0
  6 41  1  0  0  0  0
  7  8  1  0  0  0  0
  7 32  2  0  0  0  0
  8  9  1  0  0  0  0
  8 31  2  0  0  0  0
  9 10  2  0  0  0  0
  9 42  1  0  0  0  0
 10 11  1  0  0  0  0
 10 43  1  0  0  0  0
 11 12  1  0  0  0  0
 11 30  1  0  0  0  0
 12 13  1  0  0  0  0
 12 28  2  0  0  0  0
 13 14  1  0  0  0  0
 13 27  2  0  0  0  0
 14 15  2  0  0  0  0
 14 44  1  0  0  0  0
 15 16  1  0  0  0  0
 15 45  1  0  0  0  0
 16 17  2  0  0  0  0
 16 46  1  0  0  0  0
 17 18  1  0  0  0  0
 17 27  1  0  0  0  0
 18 19  1  0  0  0  0
 18 47  1  0  0  0  0
 19 20  2  0  0  0  0
 19 21  1  0  0  0  0
 21 22  1  0  0  0  0
 21 48  1  0  0  0  0
 22 23  1  0  0  0  0
 22 49  1  0  0  0  0
 22 50  1  0  0  0  0
 23 24  1  0  0  0  0
 23 25  1  0  0  0  0
 23 26  1  0  0  0  0
 27 51  1  0  0  0  0
 28 29  1  0  0  0  0
 28 52  1  0  0  0  0
 29 30  2  0  0  0  0
 30 31  1  0  0  0  0
 31 53  1  0  0  0  0
 32 33  1  0  0  0  0
M  END
$$$$
