CHEMBL3133752
 OpenBabel04072215363D

 74 78  0  0  0  0  0  0  0  0999 V2000
    2.5477    1.9014    0.1885 C   0  0  0  0  0  0  0  0  0  0  0  0
    2.4214    0.4768    0.1468 O   0  0  0  0  0  0  0  0  0  0  0  0
    3.0435   -0.1862    1.1735 C   0  0  0  0  0  0  0  0  0  0  0  0
    4.1590    0.3447    1.8289 C   0  0  0  0  0  0  0  0  0  0  0  0
    4.7043   -0.2423    2.9591 C   0  0  0  0  0  0  0  0  0  0  0  0
    5.7374    0.3813    3.5362 N   0  0  0  0  0  0  0  0  0  0  0  0
    6.2301   -0.1803    4.6340 C   0  0  0  0  0  0  0  0  0  0  0  0
    5.8038   -1.3114    5.1897 N   0  0  0  0  0  0  0  0  0  0  0  0
    4.7662   -1.9400    4.5963 C   0  0  0  0  0  0  0  0  0  0  0  0
    4.3081   -3.1548    5.1699 N   0  0  0  0  0  0  0  0  0  0  0  0
    5.0554   -3.9188    6.1022 C   0  0  0  0  0  0  0  0  0  0  0  0
    4.4049   -4.5371    7.1771 C   0  0  0  0  0  0  0  0  0  0  0  0
    5.1443   -5.2252    8.1352 C   0  0  0  0  0  0  0  0  0  0  0  0
    6.5250   -5.3538    7.9991 C   0  0  0  0  0  0  0  0  0  0  0  0
    7.1793   -4.8503    6.8707 C   0  0  0  0  0  0  0  0  0  0  0  0
    8.5639   -5.0500    6.6426 N   0  0  0  0  0  0  0  0  0  0  0  0
    9.3073   -6.0668    7.2218 C   0  0  0  0  0  0  0  0  0  0  0  0
    8.8447   -6.9790    7.8987 O   0  0  0  0  0  0  0  0  0  0  0  0
   10.6659   -5.9206    6.9744 N   0  0  0  0  0  0  0  0  0  0  0  0
   11.5936   -6.8603    7.4801 C   0  0  0  0  0  0  0  0  0  0  0  0
   12.7517   -6.4000    8.0979 C   0  0  0  0  0  0  0  0  0  0  0  0
   13.6443   -7.3144    8.6614 C   0  0  0  0  0  0  0  0  0  0  0  0
   13.4143   -8.6963    8.5773 C   0  0  0  0  0  0  0  0  0  0  0  0
   14.6127   -9.7148    9.2844 Cl  0  0  0  0  0  0  0  0  0  0  0  0
   12.2669   -9.1815    7.9426 C   0  0  0  0  0  0  0  0  0  0  0  0
   11.9122  -10.6397    7.8059 C   0  0  0  0  0  0  0  0  0  0  0  0
   12.7929  -11.5293    8.3345 F   0  0  0  0  0  0  0  0  0  0  0  0
   10.7144  -10.9317    8.3893 F   0  0  0  0  0  0  0  0  0  0  0  0
   11.7768  -11.0063    6.4976 F   0  0  0  0  0  0  0  0  0  0  0  0
   11.3648   -8.2402    7.3966 C   0  0  0  0  0  0  0  0  0  0  0  0
    6.4397   -4.1158    5.9420 C   0  0  0  0  0  0  0  0  0  0  0  0
    4.1474   -1.4248    3.4443 C   0  0  0  0  0  0  0  0  0  0  0  0
    3.0540   -2.0109    2.7487 C   0  0  0  0  0  0  0  0  0  0  0  0
    2.5300   -1.4173    1.5957 C   0  0  0  0  0  0  0  0  0  0  0  0
    1.4828   -2.0977    1.0340 O   0  0  0  0  0  0  0  0  0  0  0  0
    1.4789   -2.1788   -0.3957 C   0  0  0  0  0  0  0  0  0  0  0  0
    1.0076   -3.5774   -0.8329 C   0  0  0  0  0  0  0  0  0  0  0  0
   -0.3866   -3.9125   -0.2806 C   0  0  0  0  0  0  0  0  0  0  0  0
   -0.8736   -5.2655   -0.6109 N   0  0  0  0  0  0  0  0  0  0  0  0
   -1.1409   -5.4957   -2.0478 C   0  0  0  0  0  0  0  0  0  0  0  0
   -2.4153   -4.8184   -2.5845 C   0  0  0  0  0  0  0  0  0  0  0  0
   -3.5692   -5.1612   -1.8070 O   0  0  0  0  0  0  0  0  0  0  0  0
   -3.3636   -4.8376   -0.4273 C   0  0  0  0  0  0  0  0  0  0  0  0
   -2.1260   -5.5624    0.1307 C   0  0  0  0  0  0  0  0  0  0  0  0
    1.7144    2.3375   -0.3681 H   0  0  0  0  0  0  0  0  0  0  0  0
    3.4809    2.2122   -0.2941 H   0  0  0  0  0  0  0  0  0  0  0  0
    2.4954    2.2957    1.2116 H   0  0  0  0  0  0  0  0  0  0  0  0
    4.6311    1.2600    1.4799 H   0  0  0  0  0  0  0  0  0  0  0  0
    7.0570    0.3265    5.1223 H   0  0  0  0  0  0  0  0  0  0  0  0
    3.3392   -3.0461    5.4507 H   0  0  0  0  0  0  0  0  0  0  0  0
    3.3303   -4.4650    7.2965 H   0  0  0  0  0  0  0  0  0  0  0  0
    4.6504   -5.6665    8.9974 H   0  0  0  0  0  0  0  0  0  0  0  0
    7.0705   -5.8574    8.7890 H   0  0  0  0  0  0  0  0  0  0  0  0
    8.9528   -4.6305    5.8110 H   0  0  0  0  0  0  0  0  0  0  0  0
   10.9721   -4.9590    6.9208 H   0  0  0  0  0  0  0  0  0  0  0  0
   12.9446   -5.3370    8.2089 H   0  0  0  0  0  0  0  0  0  0  0  0
   14.5223   -6.9416    9.1853 H   0  0  0  0  0  0  0  0  0  0  0  0
   10.4640   -8.6056    6.8986 H   0  0  0  0  0  0  0  0  0  0  0  0
    6.9321   -3.6908    5.0695 H   0  0  0  0  0  0  0  0  0  0  0  0
    2.6151   -2.9420    3.1003 H   0  0  0  0  0  0  0  0  0  0  0  0
    2.4737   -2.0043   -0.8245 H   0  0  0  0  0  0  0  0  0  0  0  0
    0.7866   -1.4227   -0.7841 H   0  0  0  0  0  0  0  0  0  0  0  0
    1.7252   -4.3256   -0.4733 H   0  0  0  0  0  0  0  0  0  0  0  0
    1.0112   -3.6132   -1.9276 H   0  0  0  0  0  0  0  0  0  0  0  0
   -1.0954   -3.1414   -0.6001 H   0  0  0  0  0  0  0  0  0  0  0  0
   -0.3202   -3.8508    0.8131 H   0  0  0  0  0  0  0  0  0  0  0  0
   -1.2601   -6.5803   -2.1783 H   0  0  0  0  0  0  0  0  0  0  0  0
   -0.2809   -5.2222   -2.6663 H   0  0  0  0  0  0  0  0  0  0  0  0
   -2.6055   -5.1584   -3.6082 H   0  0  0  0  0  0  0  0  0  0  0  0
   -2.3111   -3.7284   -2.6130 H   0  0  0  0  0  0  0  0  0  0  0  0
   -4.2563   -5.1533    0.1221 H   0  0  0  0  0  0  0  0  0  0  0  0
   -3.2845   -3.7497   -0.3205 H   0  0  0  0  0  0  0  0  0  0  0  0
   -2.3002   -6.6444    0.0653 H   0  0  0  0  0  0  0  0  0  0  0  0
   -2.0060   -5.3376    1.1969 H   0  0  0  0  0  0  0  0  0  0  0  0
  1  2  1  0  0  0  0
  1 45  1  0  0  0  0
  1 46  1  0  0  0  0
  1 47  1  0  0  0  0
  2  3  1  0  0  0  0
  3  4  1  0  0  0  0
  3 34  2  0  0  0  0
  4  5  2  0  0  0  0
  4 48  1  0  0  0  0
  5  6  1  0  0  0  0
  5 32  1  0  0  0  0
  6  7  2  0  0  0  0
  7  8  1  0  0  0  0
  7 49  1  0  0  0  0
  8  9  2  0  0  0  0
  9 10  1  0  0  0  0
  9 32  1  0  0  0  0
 10 11  1  0  0  0  0
 10 50  1  0  0  0  0
 11 12  1  0  0  0  0
 11 31  2  0  0  0  0
 12 13  2  0  0  0  0
 12 51  1  0  0  0  0
 13 14  1  0  0  0  0
 13 52  1  0  0  0  0
 14 15  2  0  0  0  0
 14 53  1  0  0  0  0
 15 16  1  0  0  0  0
 15 31  1  0  0  0  0
 16 17  1  0  0  0  0
 16 54  1  0  0  0  0
 17 18  2  0  0  0  0
 17 19  1  0  0  0  0
 19 20  1  0  0  0  0
 19 55  1  0  0  0  0
 20 21  1  0  0  0  0
 20 30  2  0  0  0  0
 21 22  2  0  0  0  0
 21 56  1  0  0  0  0
 22 23  1  0  0  0  0
 22 57  1  0  0  0  0
 23 24  1  0  0  0  0
 23 25  2  0  0  0  0
 25 26  1  0  0  0  0
 25 30  1  0  0  0  0
 26 27  1  0  0  0  0
 26 28  1  0  0  0  0
 26 29  1  0  0  0  0
 30 58  1  0  0  0  0
 31 59  1  0  0  0  0
 32 33  2  0  0  0  0
 33 34  1  0  0  0  0
 33 60  1  0  0  0  0
 34 35  1  0  0  0  0
 35 36  1  0  0  0  0
 36 37  1  0  0  0  0
 36 61  1  0  0  0  0
 36 62  1  0  0  0  0
 37 38  1  0  0  0  0
 37 63  1  0  0  0  0
 37 64  1  0  0  0  0
 38 39  1  0  0  0  0
 38 65  1  0  0  0  0
 38 66  1  0  0  0  0
 39 40  1  0  0  0  0
 39 44  1  0  0  0  0
 40 41  1  0  0  0  0
 40 67  1  0  0  0  0
 40 68  1  0  0  0  0
 41 42  1  0  0  0  0
 41 69  1  0  0  0  0
 41 70  1  0  0  0  0
 42 43  1  0  0  0  0
 43 44  1  0  0  0  0
 43 71  1  0  0  0  0
 43 72  1  0  0  0  0
 44 73  1  0  0  0  0
 44 74  1  0  0  0  0
M  END
$$$$
