CHEMBL1076200
 OpenBabel04072215353D

 80 85  0  0  0  0  0  0  0  0999 V2000
    0.0590   -1.4941    2.8624 C   0  0  0  0  0  0  0  0  0  0  0  0
    0.8678   -0.5701    1.9792 C   0  0  0  0  0  0  0  0  0  0  0  0
    0.9831    0.7785    2.3355 C   0  0  0  0  0  0  0  0  0  0  0  0
    1.6970    1.6568    1.5171 C   0  0  0  0  0  0  0  0  0  0  0  0
    2.3109    1.1909    0.3477 C   0  0  0  0  0  0  0  0  0  0  0  0
    3.0346    2.1567   -0.5188 C   0  0  0  0  0  0  0  0  0  0  0  0
    3.5509    3.1315    0.0219 O   0  0  0  0  0  0  0  0  0  0  0  0
    2.9994    1.8933   -1.8819 N   0  0  0  0  0  0  0  0  0  0  0  0
    3.6148    2.6667   -2.8913 C   0  0  0  0  0  0  0  0  0  0  0  0
    4.6066    3.6114   -2.6216 C   0  0  0  0  0  0  0  0  0  0  0  0
    5.1447    4.3929   -3.6429 C   0  0  0  0  0  0  0  0  0  0  0  0
    4.6919    4.2451   -4.9500 C   0  0  0  0  0  0  0  0  0  0  0  0
    3.7114    3.2921   -5.2536 C   0  0  0  0  0  0  0  0  0  0  0  0
    3.1834    3.1583   -6.6611 C   0  0  0  0  0  0  0  0  0  0  0  0
    3.7162    4.0618   -7.5314 F   0  0  0  0  0  0  0  0  0  0  0  0
    3.4278    1.9326   -7.2006 F   0  0  0  0  0  0  0  0  0  0  0  0
    1.8338    3.3337   -6.7276 F   0  0  0  0  0  0  0  0  0  0  0  0
    3.1991    2.4832   -4.2183 C   0  0  0  0  0  0  0  0  0  0  0  0
    2.2344   -0.1640    0.0066 C   0  0  0  0  0  0  0  0  0  0  0  0
    1.5086   -1.0454    0.8126 C   0  0  0  0  0  0  0  0  0  0  0  0
    1.2114   -2.3521    0.3757 N   0  0  0  0  0  0  0  0  0  0  0  0
    1.9076   -3.1564   -0.4782 C   0  0  0  0  0  0  0  0  0  0  0  0
    1.2164   -3.9546   -1.2765 N   0  0  0  0  0  0  0  0  0  0  0  0
    1.3916   -5.1779   -0.6772 C   0  0  0  0  0  0  0  0  0  0  0  0
    0.5887   -6.3195   -0.7180 C   0  0  0  0  0  0  0  0  0  0  0  0
    0.8829   -7.3670    0.1631 C   0  0  0  0  0  0  0  0  0  0  0  0
    1.9949   -7.3075    1.0113 C   0  0  0  0  0  0  0  0  0  0  0  0
    2.8643   -6.2119    1.0003 C   0  0  0  0  0  0  0  0  0  0  0  0
    2.5061   -5.1538    0.1590 C   0  0  0  0  0  0  0  0  0  0  0  0
    3.0325   -3.8914   -0.0807 N   0  0  0  0  0  0  0  0  0  0  0  0
    4.4043   -3.5543   -0.2481 C   0  0  0  0  0  0  0  0  0  0  0  0
    5.2810   -4.5483   -0.6731 C   0  0  0  0  0  0  0  0  0  0  0  0
    6.6081   -4.2050   -0.8562 C   0  0  0  0  0  0  0  0  0  0  0  0
    7.4868   -5.1765   -1.3734 N   0  0  0  0  0  0  0  0  0  0  0  0
    8.9106   -4.9179   -1.1275 C   0  0  0  0  0  0  0  0  0  0  0  0
    9.8123   -5.8606   -1.9695 C   0  0  0  0  0  0  0  0  0  0  0  0
    9.6755   -5.6955   -3.4314 N   0  0  0  0  0  0  0  0  0  0  0  0
   10.0668   -4.3463   -3.8874 C   0  0  0  0  0  0  0  0  0  0  0  0
    9.8681   -4.1963   -5.4122 C   0  0  0  0  0  0  0  0  0  0  0  0
   10.6025   -5.1797   -6.2298 N   0  0  0  0  0  0  0  0  0  0  0  0
   12.0289   -4.8722   -6.2835 C   0  0  0  0  0  0  0  0  0  0  0  0
   10.3494   -6.5367   -5.7015 C   0  0  0  0  0  0  0  0  0  0  0  0
   10.4938   -6.6901   -4.1638 C   0  0  0  0  0  0  0  0  0  0  0  0
    7.0366   -2.9613   -0.6026 N   0  0  0  0  0  0  0  0  0  0  0  0
    6.1126   -2.0616   -0.2252 C   0  0  0  0  0  0  0  0  0  0  0  0
    4.7985   -2.2810   -0.0656 N   0  0  0  0  0  0  0  0  0  0  0  0
   -0.3961   -0.9565    3.7020 H   0  0  0  0  0  0  0  0  0  0  0  0
    0.6996   -2.2773    3.2814 H   0  0  0  0  0  0  0  0  0  0  0  0
   -0.7566   -1.9567    2.2965 H   0  0  0  0  0  0  0  0  0  0  0  0
    0.5041    1.1585    3.2347 H   0  0  0  0  0  0  0  0  0  0  0  0
    1.7578    2.7075    1.7896 H   0  0  0  0  0  0  0  0  0  0  0  0
    2.3621    1.1717   -2.1986 H   0  0  0  0  0  0  0  0  0  0  0  0
    4.9883    3.7583   -1.6155 H   0  0  0  0  0  0  0  0  0  0  0  0
    5.9093    5.1311   -3.4072 H   0  0  0  0  0  0  0  0  0  0  0  0
    5.1026    4.8859   -5.7293 H   0  0  0  0  0  0  0  0  0  0  0  0
    2.4391    1.7414   -4.4587 H   0  0  0  0  0  0  0  0  0  0  0  0
    2.7225   -0.5356   -0.8822 H   0  0  0  0  0  0  0  0  0  0  0  0
    0.2393   -2.3326    0.0654 H   0  0  0  0  0  0  0  0  0  0  0  0
   -0.2943   -6.3435   -1.3509 H   0  0  0  0  0  0  0  0  0  0  0  0
    0.2161   -8.2245    0.2100 H   0  0  0  0  0  0  0  0  0  0  0  0
    2.1768   -8.1232    1.7093 H   0  0  0  0  0  0  0  0  0  0  0  0
    3.7145   -6.1531    1.6720 H   0  0  0  0  0  0  0  0  0  0  0  0
    4.9568   -5.5586   -0.8951 H   0  0  0  0  0  0  0  0  0  0  0  0
    7.3135   -5.2882   -2.3751 H   0  0  0  0  0  0  0  0  0  0  0  0
    9.1148   -5.1032   -0.0670 H   0  0  0  0  0  0  0  0  0  0  0  0
    9.1849   -3.8791   -1.3344 H   0  0  0  0  0  0  0  0  0  0  0  0
    9.5467   -6.8943   -1.7109 H   0  0  0  0  0  0  0  0  0  0  0  0
   10.8561   -5.7120   -1.6636 H   0  0  0  0  0  0  0  0  0  0  0  0
   11.1092   -4.1309   -3.6171 H   0  0  0  0  0  0  0  0  0  0  0  0
    9.4453   -3.5823   -3.4119 H   0  0  0  0  0  0  0  0  0  0  0  0
   10.1261   -3.1752   -5.7182 H   0  0  0  0  0  0  0  0  0  0  0  0
    8.7970   -4.3058   -5.6303 H   0  0  0  0  0  0  0  0  0  0  0  0
   12.1859   -3.8612   -6.6778 H   0  0  0  0  0  0  0  0  0  0  0  0
   12.5378   -5.5546   -6.9726 H   0  0  0  0  0  0  0  0  0  0  0  0
   12.5246   -4.9367   -5.3101 H   0  0  0  0  0  0  0  0  0  0  0  0
   10.9923   -7.2659   -6.2102 H   0  0  0  0  0  0  0  0  0  0  0  0
    9.3217   -6.8117   -5.9744 H   0  0  0  0  0  0  0  0  0  0  0  0
   11.5535   -6.6018   -3.8874 H   0  0  0  0  0  0  0  0  0  0  0  0
   10.1752   -7.7038   -3.8927 H   0  0  0  0  0  0  0  0  0  0  0  0
    6.4715   -1.0554   -0.0349 H   0  0  0  0  0  0  0  0  0  0  0  0
  1  2  1  0  0  0  0
  1 47  1  0  0  0  0
  1 48  1  0  0  0  0
  1 49  1  0  0  0  0
  2  3  1  0  0  0  0
  2 20  2  0  0  0  0
  3  4  2  0  0  0  0
  3 50  1  0  0  0  0
  4  5  1  0  0  0  0
  4 51  1  0  0  0  0
  5  6  1  0  0  0  0
  5 19  2  0  0  0  0
  6  7  2  0  0  0  0
  6  8  1  0  0  0  0
  8  9  1  0  0  0  0
  8 52  1  0  0  0  0
  9 10  1  0  0  0  0
  9 18  2  0  0  0  0
 10 11  2  0  0  0  0
 10 53  1  0  0  0  0
 11 12  1  0  0  0  0
 11 54  1  0  0  0  0
 12 13  2  0  0  0  0
 12 55  1  0  0  0  0
 13 14  1  0  0  0  0
 13 18  1  0  0  0  0
 14 15  1  0  0  0  0
 14 16  1  0  0  0  0
 14 17  1  0  0  0  0
 18 56  1  0  0  0  0
 19 20  1  0  0  0  0
 19 57  1  0  0  0  0
 20 21  1  0  0  0  0
 21 22  1  0  0  0  0
 21 58  1  0  0  0  0
 22 23  2  0  0  0  0
 22 30  1  0  0  0  0
 23 24  1  0  0  0  0
 24 25  1  0  0  0  0
 24 29  2  0  0  0  0
 25 26  2  0  0  0  0
 25 59  1  0  0  0  0
 26 27  1  0  0  0  0
 26 60  1  0  0  0  0
 27 28  2  0  0  0  0
 27 61  1  0  0  0  0
 28 29  1  0  0  0  0
 28 62  1  0  0  0  0
 29 30  1  0  0  0  0
 30 31  1  0  0  0  0
 31 32  1  0  0  0  0
 31 46  2  0  0  0  0
 32 33  2  0  0  0  0
 32 63  1  0  0  0  0
 33 34  1  0  0  0  0
 33 44  1  0  0  0  0
 34 35  1  0  0  0  0
 34 64  1  0  0  0  0
 35 36  1  0  0  0  0
 35 65  1  0  0  0  0
 35 66  1  0  0  0  0
 36 37  1  0  0  0  0
 36 67  1  0  0  0  0
 36 68  1  0  0  0  0
 37 38  1  0  0  0  0
 37 43  1  0  0  0  0
 38 39  1  0  0  0  0
 38 69  1  0  0  0  0
 38 70  1  0  0  0  0
 39 40  1  0  0  0  0
 39 71  1  0  0  0  0
 39 72  1  0  0  0  0
 40 41  1  0  0  0  0
 40 42  1  0  0  0  0
 41 73  1  0  0  0  0
 41 74  1  0  0  0  0
 41 75  1  0  0  0  0
 42 43  1  0  0  0  0
 42 76  1  0  0  0  0
 42 77  1  0  0  0  0
 43 78  1  0  0  0  0
 43 79  1  0  0  0  0
 44 45  2  0  0  0  0
 45 46  1  0  0  0  0
 45 80  1  0  0  0  0
M  END
$$$$
