CHEMBL4294551
 OpenBabel04072215383D

 40 43  0  0  0  0  0  0  0  0999 V2000
    1.8414    1.7387    0.6295 C   0  0  0  0  0  0  0  0  0  0  0  0
    2.7978    0.2843    0.1405 S   0  0  0  0  0  0  0  0  0  0  0  0
    3.3072   -0.2931    1.7385 C   0  0  0  0  0  0  0  0  0  0  0  0
    3.5615   -1.6046    1.8529 N   0  0  0  0  0  0  0  0  0  0  0  0
    4.0042   -2.0252    3.0546 C   0  0  0  0  0  0  0  0  0  0  0  0
    4.2077   -1.1910    4.1344 C   0  0  0  0  0  0  0  0  0  0  0  0
    3.9695    0.1530    3.8963 C   0  0  0  0  0  0  0  0  0  0  0  0
    3.4765    0.6027    2.7220 N   0  0  0  0  0  0  0  0  0  0  0  0
    4.3160    1.1560    4.8140 N   0  0  0  0  0  0  0  0  0  0  0  0
    5.5361    1.1373    5.3951 C   0  0  0  0  0  0  0  0  0  0  0  0
    6.3580    2.1871    5.4441 N   0  0  0  0  0  0  0  0  0  0  0  0
    7.4868    1.6833    5.9763 N   0  0  0  0  0  0  0  0  0  0  0  0
    7.4167    0.3524    6.2850 C   0  0  0  0  0  0  0  0  0  0  0  0
    8.5405   -0.3973    6.8807 C   0  0  0  0  0  0  0  0  0  0  0  0
    6.1442   -0.0193    5.9357 C   0  0  0  0  0  0  0  0  0  0  0  0
    5.5812   -1.2602    6.2224 N   0  0  0  0  0  0  0  0  0  0  0  0
    4.6536   -1.7433    5.4451 C   0  0  0  0  0  0  0  0  0  0  0  0
    3.9617   -2.9823    5.9645 C   0  0  0  0  0  0  0  0  0  0  0  0
    2.6183   -3.2528    5.6716 C   0  0  0  0  0  0  0  0  0  0  0  0
    1.9758   -4.3504    6.2544 C   0  0  0  0  0  0  0  0  0  0  0  0
    2.6556   -5.1778    7.1546 C   0  0  0  0  0  0  0  0  0  0  0  0
    1.9607   -6.3263    7.8247 C   0  0  0  0  0  0  0  0  0  0  0  0
    3.9982   -4.9103    7.4436 C   0  0  0  0  0  0  0  0  0  0  0  0
    4.6456   -3.8207    6.8551 C   0  0  0  0  0  0  0  0  0  0  0  0
    1.4310    2.2113   -0.2671 H   0  0  0  0  0  0  0  0  0  0  0  0
    2.4657    2.4744    1.1445 H   0  0  0  0  0  0  0  0  0  0  0  0
    1.0097    1.4459    1.2761 H   0  0  0  0  0  0  0  0  0  0  0  0
    4.2057   -3.0923    3.1087 H   0  0  0  0  0  0  0  0  0  0  0  0
    4.0862    2.0497    4.3927 H   0  0  0  0  0  0  0  0  0  0  0  0
    8.2745    2.3111    6.1021 H   0  0  0  0  0  0  0  0  0  0  0  0
    9.4451    0.2145    6.9444 H   0  0  0  0  0  0  0  0  0  0  0  0
    8.7753   -1.2771    6.2705 H   0  0  0  0  0  0  0  0  0  0  0  0
    8.2857   -0.7377    7.8888 H   0  0  0  0  0  0  0  0  0  0  0  0
    2.0338   -2.6043    5.0251 H   0  0  0  0  0  0  0  0  0  0  0  0
    0.9291   -4.5365    6.0211 H   0  0  0  0  0  0  0  0  0  0  0  0
    0.8980   -6.3604    7.5629 H   0  0  0  0  0  0  0  0  0  0  0  0
    2.0300   -6.2247    8.9130 H   0  0  0  0  0  0  0  0  0  0  0  0
    2.4169   -7.2734    7.5211 H   0  0  0  0  0  0  0  0  0  0  0  0
    4.5428   -5.5342    8.1495 H   0  0  0  0  0  0  0  0  0  0  0  0
    5.6806   -3.6148    7.1207 H   0  0  0  0  0  0  0  0  0  0  0  0
  1  2  1  0  0  0  0
  1 25  1  0  0  0  0
  1 26  1  0  0  0  0
  1 27  1  0  0  0  0
  2  3  1  0  0  0  0
  3  4  1  0  0  0  0
  3  8  2  0  0  0  0
  4  5  2  0  0  0  0
  5  6  1  0  0  0  0
  5 28  1  0  0  0  0
  6  7  2  0  0  0  0
  6 17  1  0  0  0  0
  7  8  1  0  0  0  0
  7  9  1  0  0  0  0
  9 10  1  0  0  0  0
  9 29  1  0  0  0  0
 10 11  2  0  0  0  0
 10 15  1  0  0  0  0
 11 12  1  0  0  0  0
 12 13  1  0  0  0  0
 12 30  1  0  0  0  0
 13 14  1  0  0  0  0
 13 15  2  0  0  0  0
 14 31  1  0  0  0  0
 14 32  1  0  0  0  0
 14 33  1  0  0  0  0
 15 16  1  0  0  0  0
 16 17  2  0  0  0  0
 17 18  1  0  0  0  0
 18 19  1  0  0  0  0
 18 24  2  0  0  0  0
 19 20  2  0  0  0  0
 19 34  1  0  0  0  0
 20 21  1  0  0  0  0
 20 35  1  0  0  0  0
 21 22  1  0  0  0  0
 21 23  2  0  0  0  0
 22 36  1  0  0  0  0
 22 37  1  0  0  0  0
 22 38  1  0  0  0  0
 23 24  1  0  0  0  0
 23 39  1  0  0  0  0
 24 40  1  0  0  0  0
M  END
$$$$
