CHEMBL236420
 OpenBabel04072215363D

 47 49  0  0  0  0  0  0  0  0999 V2000
    1.4673   -1.3044   -1.4822 C   0  0  0  0  0  0  0  0  0  0  0  0
    2.3027   -0.4465   -0.5271 C   0  0  0  0  0  0  0  0  0  0  0  0
    3.3968   -1.2869    0.1319 C   0  0  0  0  0  0  0  0  0  0  0  0
    2.7974    0.7964   -1.2464 C   0  0  0  0  0  0  0  0  0  0  0  0
    1.9707    1.9256   -1.2560 C   0  0  0  0  0  0  0  0  0  0  0  0
    2.3176    3.0691   -1.9769 C   0  0  0  0  0  0  0  0  0  0  0  0
    3.4931    3.1229   -2.7180 C   0  0  0  0  0  0  0  0  0  0  0  0
    3.8574    4.2256   -3.5252 N   0  0  0  0  0  0  0  0  0  0  0  0
    3.1437    5.4030   -3.6959 C   0  0  0  0  0  0  0  0  0  0  0  0
    2.1161    5.6915   -3.0948 O   0  0  0  0  0  0  0  0  0  0  0  0
    3.7208    6.3216   -4.6557 C   0  0  0  0  0  0  0  0  0  0  0  0
    4.5389    6.0832   -5.7493 C   0  0  0  0  0  0  0  0  0  0  0  0
    4.7147    7.3302   -6.3669 C   0  0  0  0  0  0  0  0  0  0  0  0
    4.1006    8.3090   -5.7070 N   0  0  0  0  0  0  0  0  0  0  0  0
    3.4758    7.6810   -4.6853 N   0  0  0  0  0  0  0  0  0  0  0  0
    2.6076    8.4719   -3.8210 C   0  0  0  0  0  0  0  0  0  0  0  0
    3.0959    8.5789   -2.3746 C   0  0  0  0  0  0  0  0  0  0  0  0
    2.1870    9.4364   -1.5253 C   0  0  0  0  0  0  0  0  0  0  0  0
    1.1037    8.8729   -0.8443 C   0  0  0  0  0  0  0  0  0  0  0  0
    0.2987    9.6976   -0.0738 C   0  0  0  0  0  0  0  0  0  0  0  0
    0.4913   11.0285    0.0577 N   0  0  0  0  0  0  0  0  0  0  0  0
    1.5377   11.5548   -0.6124 C   0  0  0  0  0  0  0  0  0  0  0  0
    2.3999   10.8122   -1.4071 C   0  0  0  0  0  0  0  0  0  0  0  0
    4.3445    2.0120   -2.6860 C   0  0  0  0  0  0  0  0  0  0  0  0
    3.9986    0.8572   -1.9634 C   0  0  0  0  0  0  0  0  0  0  0  0
    1.0531   -2.1744   -0.9616 H   0  0  0  0  0  0  0  0  0  0  0  0
    2.0655   -1.6657   -2.3260 H   0  0  0  0  0  0  0  0  0  0  0  0
    0.6258   -0.7340   -1.8924 H   0  0  0  0  0  0  0  0  0  0  0  0
    1.6421   -0.1178    0.2874 H   0  0  0  0  0  0  0  0  0  0  0  0
    4.0823   -1.7230   -0.6014 H   0  0  0  0  0  0  0  0  0  0  0  0
    2.9501   -2.1147    0.6947 H   0  0  0  0  0  0  0  0  0  0  0  0
    3.9830   -0.6849    0.8343 H   0  0  0  0  0  0  0  0  0  0  0  0
    1.0271    1.9206   -0.7134 H   0  0  0  0  0  0  0  0  0  0  0  0
    1.6131    3.8955   -1.9456 H   0  0  0  0  0  0  0  0  0  0  0  0
    4.7299    4.1387   -4.0266 H   0  0  0  0  0  0  0  0  0  0  0  0
    4.9149    5.1305   -6.0952 H   0  0  0  0  0  0  0  0  0  0  0  0
    5.2572    7.5654   -7.2740 H   0  0  0  0  0  0  0  0  0  0  0  0
    1.6019    8.0433   -3.8904 H   0  0  0  0  0  0  0  0  0  0  0  0
    2.5472    9.4764   -4.2609 H   0  0  0  0  0  0  0  0  0  0  0  0
    4.1139    8.9875   -2.3467 H   0  0  0  0  0  0  0  0  0  0  0  0
    3.1755    7.5920   -1.9059 H   0  0  0  0  0  0  0  0  0  0  0  0
    0.8892    7.8098   -0.9031 H   0  0  0  0  0  0  0  0  0  0  0  0
   -0.5486    9.2992    0.4777 H   0  0  0  0  0  0  0  0  0  0  0  0
    1.6722   12.6260   -0.4894 H   0  0  0  0  0  0  0  0  0  0  0  0
    3.2219   11.3038   -1.9158 H   0  0  0  0  0  0  0  0  0  0  0  0
    5.2828    2.0140   -3.2348 H   0  0  0  0  0  0  0  0  0  0  0  0
    4.6750    0.0068   -1.9895 H   0  0  0  0  0  0  0  0  0  0  0  0
  1  2  1  0  0  0  0
  1 26  1  0  0  0  0
  1 27  1  0  0  0  0
  1 28  1  0  0  0  0
  2  3  1  0  0  0  0
  2  4  1  0  0  0  0
  2 29  1  0  0  0  0
  3 30  1  0  0  0  0
  3 31  1  0  0  0  0
  3 32  1  0  0  0  0
  4  5  1  0  0  0  0
  4 25  2  0  0  0  0
  5  6  2  0  0  0  0
  5 33  1  0  0  0  0
  6  7  1  0  0  0  0
  6 34  1  0  0  0  0
  7  8  1  0  0  0  0
  7 24  2  0  0  0  0
  8  9  1  0  0  0  0
  8 35  1  0  0  0  0
  9 10  2  0  0  0  0
  9 11  1  0  0  0  0
 11 12  2  0  0  0  0
 11 15  1  0  0  0  0
 12 13  1  0  0  0  0
 12 36  1  0  0  0  0
 13 14  2  0  0  0  0
 13 37  1  0  0  0  0
 14 15  1  0  0  0  0
 15 16  1  0  0  0  0
 16 17  1  0  0  0  0
 16 38  1  0  0  0  0
 16 39  1  0  0  0  0
 17 18  1  0  0  0  0
 17 40  1  0  0  0  0
 17 41  1  0  0  0  0
 18 19  1  0  0  0  0
 18 23  2  0  0  0  0
 19 20  2  0  0  0  0
 19 42  1  0  0  0  0
 20 21  1  0  0  0  0
 20 43  1  0  0  0  0
 21 22  2  0  0  0  0
 22 23  1  0  0  0  0
 22 44  1  0  0  0  0
 23 45  1  0  0  0  0
 24 25  1  0  0  0  0
 24 46  1  0  0  0  0
 25 47  1  0  0  0  0
M  END
$$$$
