CHEMBL3220323
 OpenBabel04072215363D

 80 83  0  0  0  0  0  0  0  0999 V2000
    1.9420    0.8639    1.7455 C   0  0  0  0  0  0  0  0  0  0  0  0
    2.8667    0.2970    0.8235 O   0  0  0  0  0  0  0  0  0  0  0  0
    2.9970    0.9084   -0.3969 C   0  0  0  0  0  0  0  0  0  0  0  0
    2.6994    2.2620   -0.6057 C   0  0  0  0  0  0  0  0  0  0  0  0
    3.0288    2.9579   -1.7987 C   0  0  0  0  0  0  0  0  0  0  0  0
    2.8193    4.4399   -1.8809 C   0  0  0  0  0  0  0  0  0  0  0  0
    2.9960    5.1644   -0.6825 C   0  0  0  0  0  0  0  0  0  0  0  0
    2.7615    6.5283   -0.5361 C   0  0  0  0  0  0  0  0  0  0  0  0
    2.8469    7.1786    0.7223 N   0  0  0  0  0  0  0  0  0  0  0  0
    3.1602    6.5622    1.9261 C   0  0  0  0  0  0  0  0  0  0  0  0
    3.4551    5.3800    2.0693 O   0  0  0  0  0  0  0  0  0  0  0  0
    3.0675    7.4264    3.0080 N   0  0  0  0  0  0  0  0  0  0  0  0
    3.4116    6.9513    4.2975 C   0  0  0  0  0  0  0  0  0  0  0  0
    4.5994    6.2446    4.5164 C   0  0  0  0  0  0  0  0  0  0  0  0
    4.8942    5.7185    5.7814 C   0  0  0  0  0  0  0  0  0  0  0  0
    3.9945    5.9071    6.8261 C   0  0  0  0  0  0  0  0  0  0  0  0
    4.1688    5.4435    8.1042 O   0  0  0  0  0  0  0  0  0  0  0  0
    5.5289    5.3166    8.5182 C   0  0  0  0  0  0  0  0  0  0  0  0
    5.5600    5.4376   10.0382 C   0  0  0  0  0  0  0  0  0  0  0  0
    6.9967    5.3283   10.5504 C   0  0  0  0  0  0  0  0  0  0  0  0
    7.1234    5.4675   12.0104 N   0  0  0  0  0  0  0  0  0  0  0  0
    8.5497    5.4186   12.4174 C   0  0  0  0  0  0  0  0  0  0  0  0
    9.1783    4.0159   12.3043 C   0  0  0  0  0  0  0  0  0  0  0  0
    8.4299    3.0393   13.0406 O   0  0  0  0  0  0  0  0  0  0  0  0
    7.0556    3.0224   12.6320 C   0  0  0  0  0  0  0  0  0  0  0  0
    6.4169    4.4130   12.7722 C   0  0  0  0  0  0  0  0  0  0  0  0
    2.7998    6.5928    6.6040 C   0  0  0  0  0  0  0  0  0  0  0  0
    2.5229    7.1504    5.3447 C   0  0  0  0  0  0  0  0  0  0  0  0
    2.4031    7.2436   -1.6726 C   0  0  0  0  0  0  0  0  0  0  0  0
    2.2788    6.5878   -2.9154 C   0  0  0  0  0  0  0  0  0  0  0  0
    1.8409    7.2935   -4.0120 O   0  0  0  0  0  0  0  0  0  0  0  0
    2.5361    8.5166   -4.2464 C   0  0  0  0  0  0  0  0  0  0  0  0
    2.4708    5.1852   -3.0286 C   0  0  0  0  0  0  0  0  0  0  0  0
    2.2841    4.4628   -4.1831 O   0  0  0  0  0  0  0  0  0  0  0  0
    2.5531    5.1138   -5.4196 C   0  0  0  0  0  0  0  0  0  0  0  0
    3.6411    2.2087   -2.8074 C   0  0  0  0  0  0  0  0  0  0  0  0
    3.8843    0.8361   -2.6433 C   0  0  0  0  0  0  0  0  0  0  0  0
    3.5517    0.1743   -1.4490 C   0  0  0  0  0  0  0  0  0  0  0  0
    3.7753   -1.3037   -1.3796 C   0  0  0  0  0  0  0  0  0  0  0  0
    2.8164   -2.1625   -0.5725 C   0  0  0  0  0  0  0  0  0  0  0  0
    4.7534   -1.8277   -2.0692 N   0  0  0  0  0  0  0  0  0  0  0  0
    4.7907   -3.2197   -1.9269 O   0  0  0  0  0  0  0  0  0  0  0  0
    1.8656    0.1840    2.5997 H   0  0  0  0  0  0  0  0  0  0  0  0
    0.9478    0.9481    1.2945 H   0  0  0  0  0  0  0  0  0  0  0  0
    2.2906    1.8287    2.1270 H   0  0  0  0  0  0  0  0  0  0  0  0
    2.2347    2.8200    0.2019 H   0  0  0  0  0  0  0  0  0  0  0  0
    3.3436    4.5971    0.1697 H   0  0  0  0  0  0  0  0  0  0  0  0
    2.7138    8.1786    0.7408 H   0  0  0  0  0  0  0  0  0  0  0  0
    2.2796    8.0570    2.9634 H   0  0  0  0  0  0  0  0  0  0  0  0
    5.3057    6.0746    3.7016 H   0  0  0  0  0  0  0  0  0  0  0  0
    5.8087    5.1490    5.9040 H   0  0  0  0  0  0  0  0  0  0  0  0
    6.1589    6.1052    8.0873 H   0  0  0  0  0  0  0  0  0  0  0  0
    5.9079    4.3346    8.2101 H   0  0  0  0  0  0  0  0  0  0  0  0
    4.9179    4.6547   10.4556 H   0  0  0  0  0  0  0  0  0  0  0  0
    5.1158    6.3944   10.3400 H   0  0  0  0  0  0  0  0  0  0  0  0
    7.5760    6.1348   10.0814 H   0  0  0  0  0  0  0  0  0  0  0  0
    7.4293    4.3884   10.1905 H   0  0  0  0  0  0  0  0  0  0  0  0
    8.6048    5.7402   13.4658 H   0  0  0  0  0  0  0  0  0  0  0  0
    9.1388    6.1455   11.8457 H   0  0  0  0  0  0  0  0  0  0  0  0
   10.1904    4.0337   12.7200 H   0  0  0  0  0  0  0  0  0  0  0  0
    9.2624    3.6915   11.2618 H   0  0  0  0  0  0  0  0  0  0  0  0
    6.5303    2.3102   13.2755 H   0  0  0  0  0  0  0  0  0  0  0  0
    6.9873    2.6443   11.6050 H   0  0  0  0  0  0  0  0  0  0  0  0
    6.4464    4.7012   13.8317 H   0  0  0  0  0  0  0  0  0  0  0  0
    5.3543    4.3748   12.5149 H   0  0  0  0  0  0  0  0  0  0  0  0
    2.0812    6.6930    7.4119 H   0  0  0  0  0  0  0  0  0  0  0  0
    1.5735    7.6551    5.2002 H   0  0  0  0  0  0  0  0  0  0  0  0
    2.1853    8.3037   -1.5999 H   0  0  0  0  0  0  0  0  0  0  0  0
    2.5325    8.6985   -5.3259 H   0  0  0  0  0  0  0  0  0  0  0  0
    3.5813    8.4797   -3.9189 H   0  0  0  0  0  0  0  0  0  0  0  0
    2.0081    9.3437   -3.7628 H   0  0  0  0  0  0  0  0  0  0  0  0
    2.7548    4.3410   -6.1685 H   0  0  0  0  0  0  0  0  0  0  0  0
    3.4399    5.7556   -5.3702 H   0  0  0  0  0  0  0  0  0  0  0  0
    1.6730    5.6662   -5.7619 H   0  0  0  0  0  0  0  0  0  0  0  0
    3.9551    2.6807   -3.7355 H   0  0  0  0  0  0  0  0  0  0  0  0
    4.3462    0.2845   -3.4596 H   0  0  0  0  0  0  0  0  0  0  0  0
    1.9758   -1.6038   -0.1534 H   0  0  0  0  0  0  0  0  0  0  0  0
    3.3613   -2.6547    0.2384 H   0  0  0  0  0  0  0  0  0  0  0  0
    2.3793   -2.9266   -1.2260 H   0  0  0  0  0  0  0  0  0  0  0  0
    5.5425   -3.4680   -2.4977 H   0  0  0  0  0  0  0  0  0  0  0  0
  1  2  1  0  0  0  0
  1 43  1  0  0  0  0
  1 44  1  0  0  0  0
  1 45  1  0  0  0  0
  2  3  1  0  0  0  0
  3  4  1  0  0  0  0
  3 38  2  0  0  0  0
  4  5  2  0  0  0  0
  4 46  1  0  0  0  0
  5  6  1  0  0  0  0
  5 36  1  0  0  0  0
  6  7  1  0  0  0  0
  6 33  2  0  0  0  0
  7  8  2  0  0  0  0
  7 47  1  0  0  0  0
  8  9  1  0  0  0  0
  8 29  1  0  0  0  0
  9 10  1  0  0  0  0
  9 48  1  0  0  0  0
 10 11  2  0  0  0  0
 10 12  1  0  0  0  0
 12 13  1  0  0  0  0
 12 49  1  0  0  0  0
 13 14  1  0  0  0  0
 13 28  2  0  0  0  0
 14 15  2  0  0  0  0
 14 50  1  0  0  0  0
 15 16  1  0  0  0  0
 15 51  1  0  0  0  0
 16 17  1  0  0  0  0
 16 27  2  0  0  0  0
 17 18  1  0  0  0  0
 18 19  1  0  0  0  0
 18 52  1  0  0  0  0
 18 53  1  0  0  0  0
 19 20  1  0  0  0  0
 19 54  1  0  0  0  0
 19 55  1  0  0  0  0
 20 21  1  0  0  0  0
 20 56  1  0  0  0  0
 20 57  1  0  0  0  0
 21 22  1  0  0  0  0
 21 26  1  0  0  0  0
 22 23  1  0  0  0  0
 22 58  1  0  0  0  0
 22 59  1  0  0  0  0
 23 24  1  0  0  0  0
 23 60  1  0  0  0  0
 23 61  1  0  0  0  0
 24 25  1  0  0  0  0
 25 26  1  0  0  0  0
 25 62  1  0  0  0  0
 25 63  1  0  0  0  0
 26 64  1  0  0  0  0
 26 65  1  0  0  0  0
 27 28  1  0  0  0  0
 27 66  1  0  0  0  0
 28 67  1  0  0  0  0
 29 30  2  0  0  0  0
 29 68  1  0  0  0  0
 30 31  1  0  0  0  0
 30 33  1  0  0  0  0
 31 32  1  0  0  0  0
 32 69  1  0  0  0  0
 32 70  1  0  0  0  0
 32 71  1  0  0  0  0
 33 34  1  0  0  0  0
 34 35  1  0  0  0  0
 35 72  1  0  0  0  0
 35 73  1  0  0  0  0
 35 74  1  0  0  0  0
 36 37  2  0  0  0  0
 36 75  1  0  0  0  0
 37 38  1  0  0  0  0
 37 76  1  0  0  0  0
 38 39  1  0  0  0  0
 39 40  1  0  0  0  0
 39 41  2  0  0  0  0
 40 77  1  0  0  0  0
 40 78  1  0  0  0  0
 40 79  1  0  0  0  0
 41 42  1  0  0  0  0
 42 80  1  0  0  0  0
M  END
$$$$
