CHEMBL4169257
 OpenBabel04072215383D

 63 67  0  0  0  0  0  0  0  0999 V2000
    1.0352    0.8251   -0.5525 C   0  0  0  0  0  0  0  0  0  0  0  0
    2.4614    0.8140   -0.5521 O   0  0  0  0  0  0  0  0  0  0  0  0
    2.9951    0.9570    0.6849 C   0  0  0  0  0  0  0  0  0  0  0  0
    2.3734    1.1142    1.7184 O   0  0  0  0  0  0  0  0  0  0  0  0
    4.4820    0.9333    0.6210 C   0  0  0  0  0  0  0  0  0  0  0  0
    5.2165    0.7876   -0.5738 C   0  0  0  0  0  0  0  0  0  0  0  0
    6.6181    0.8796   -0.5882 C   0  0  0  0  0  0  0  0  0  0  0  0
    7.2778    1.1345    0.5986 C   0  0  0  0  0  0  0  0  0  0  0  0
    6.5270    1.2313    1.7793 C   0  0  0  0  0  0  0  0  0  0  0  0
    5.1509    1.1144    1.8320 C   0  0  0  0  0  0  0  0  0  0  0  0
    7.3330    1.5611    2.8610 N   0  0  0  0  0  0  0  0  0  0  0  0
    8.6146    1.8254    2.4395 C   0  0  0  0  0  0  0  0  0  0  0  0
    9.4632    2.4524    3.0666 O   0  0  0  0  0  0  0  0  0  0  0  0
    8.6782    1.3862    1.0013 C   0  0  0  0  0  0  0  0  0  0  0  0
    9.8633    1.2721    0.3615 C   0  0  0  0  0  0  0  0  0  0  0  0
   11.1283    1.3314    0.9237 N   0  0  0  0  0  0  0  0  0  0  0  0
   11.8931    0.1862    1.3228 C   0  0  0  0  0  0  0  0  0  0  0  0
   13.1855    0.3831    1.8350 C   0  0  0  0  0  0  0  0  0  0  0  0
   14.1144   -0.6653    1.9440 C   0  0  0  0  0  0  0  0  0  0  0  0
   13.6926   -1.9355    1.5324 C   0  0  0  0  0  0  0  0  0  0  0  0
   12.3929   -2.1954    1.1457 C   0  0  0  0  0  0  0  0  0  0  0  0
   11.4812   -1.1304    1.0424 C   0  0  0  0  0  0  0  0  0  0  0  0
   12.2229   -3.5378    0.8872 N   0  0  0  0  0  0  0  0  0  0  0  0
   13.4067   -4.1025    1.0736 C   0  0  0  0  0  0  0  0  0  0  0  0
   13.6627   -5.5884    0.9759 C   0  0  0  0  0  0  0  0  0  0  0  0
   14.2267   -6.2020    2.1994 N   0  0  0  0  0  0  0  0  0  0  0  0
   13.3310   -6.0515    3.3544 C   0  0  0  0  0  0  0  0  0  0  0  0
   14.4544   -7.6391    1.9789 C   0  0  0  0  0  0  0  0  0  0  0  0
   14.3493   -3.1324    1.3555 N   0  0  0  0  0  0  0  0  0  0  0  0
   15.7874   -3.2503    1.3794 C   0  0  0  0  0  0  0  0  0  0  0  0
    9.9061    1.2168   -1.1228 C   0  0  0  0  0  0  0  0  0  0  0  0
    9.9715    2.4245   -1.8383 C   0  0  0  0  0  0  0  0  0  0  0  0
   10.0445    2.4249   -3.2324 C   0  0  0  0  0  0  0  0  0  0  0  0
   10.0726    1.2183   -3.9269 C   0  0  0  0  0  0  0  0  0  0  0  0
   10.0267    0.0138   -3.2270 C   0  0  0  0  0  0  0  0  0  0  0  0
    9.9343    0.0091   -1.8351 C   0  0  0  0  0  0  0  0  0  0  0  0
    0.6957    0.5262   -1.5476 H   0  0  0  0  0  0  0  0  0  0  0  0
    0.6641    1.8329   -0.3427 H   0  0  0  0  0  0  0  0  0  0  0  0
    0.6393    0.1086    0.1745 H   0  0  0  0  0  0  0  0  0  0  0  0
    4.6974    0.6330   -1.5227 H   0  0  0  0  0  0  0  0  0  0  0  0
    7.1569    0.7798   -1.5341 H   0  0  0  0  0  0  0  0  0  0  0  0
    4.6142    1.2206    2.7707 H   0  0  0  0  0  0  0  0  0  0  0  0
    6.9918    1.8157    3.7773 H   0  0  0  0  0  0  0  0  0  0  0  0
   11.3100    2.1530    1.4955 H   0  0  0  0  0  0  0  0  0  0  0  0
   13.5072    1.3804    2.1247 H   0  0  0  0  0  0  0  0  0  0  0  0
   15.1279   -0.4823    2.2872 H   0  0  0  0  0  0  0  0  0  0  0  0
   10.4792   -1.3557    0.7100 H   0  0  0  0  0  0  0  0  0  0  0  0
   14.3528   -5.7538    0.1382 H   0  0  0  0  0  0  0  0  0  0  0  0
   12.7197   -6.0855    0.7071 H   0  0  0  0  0  0  0  0  0  0  0  0
   13.0204   -5.0139    3.5081 H   0  0  0  0  0  0  0  0  0  0  0  0
   13.8621   -6.3478    4.2666 H   0  0  0  0  0  0  0  0  0  0  0  0
   12.4275   -6.6683    3.2722 H   0  0  0  0  0  0  0  0  0  0  0  0
   15.0718   -7.8142    1.0915 H   0  0  0  0  0  0  0  0  0  0  0  0
   13.5177   -8.1986    1.8534 H   0  0  0  0  0  0  0  0  0  0  0  0
   14.9938   -8.0730    2.8291 H   0  0  0  0  0  0  0  0  0  0  0  0
   16.1122   -4.2073    0.9701 H   0  0  0  0  0  0  0  0  0  0  0  0
   16.1230   -3.1271    2.4109 H   0  0  0  0  0  0  0  0  0  0  0  0
   16.2025   -2.4462    0.7606 H   0  0  0  0  0  0  0  0  0  0  0  0
    9.9812    3.3745   -1.3080 H   0  0  0  0  0  0  0  0  0  0  0  0
   10.0934    3.3654   -3.7751 H   0  0  0  0  0  0  0  0  0  0  0  0
   10.1421    1.2129   -5.0117 H   0  0  0  0  0  0  0  0  0  0  0  0
   10.0701   -0.9307   -3.7623 H   0  0  0  0  0  0  0  0  0  0  0  0
    9.9046   -0.9397   -1.3184 H   0  0  0  0  0  0  0  0  0  0  0  0
  1  2  1  0  0  0  0
  1 37  1  0  0  0  0
  1 38  1  0  0  0  0
  1 39  1  0  0  0  0
  2  3  1  0  0  0  0
  3  4  2  0  0  0  0
  3  5  1  0  0  0  0
  5  6  1  0  0  0  0
  5 10  2  0  0  0  0
  6  7  2  0  0  0  0
  6 40  1  0  0  0  0
  7  8  1  0  0  0  0
  7 41  1  0  0  0  0
  8  9  2  0  0  0  0
  8 14  1  0  0  0  0
  9 10  1  0  0  0  0
  9 11  1  0  0  0  0
 10 42  1  0  0  0  0
 11 12  1  0  0  0  0
 11 43  1  0  0  0  0
 12 13  2  0  0  0  0
 12 14  1  0  0  0  0
 14 15  2  0  0  0  0
 15 16  1  0  0  0  0
 15 31  1  0  0  0  0
 16 17  1  0  0  0  0
 16 44  1  0  0  0  0
 17 18  1  0  0  0  0
 17 22  2  0  0  0  0
 18 19  2  0  0  0  0
 18 45  1  0  0  0  0
 19 20  1  0  0  0  0
 19 46  1  0  0  0  0
 20 21  2  0  0  0  0
 20 29  1  0  0  0  0
 21 22  1  0  0  0  0
 21 23  1  0  0  0  0
 22 47  1  0  0  0  0
 23 24  2  0  0  0  0
 24 25  1  0  0  0  0
 24 29  1  0  0  0  0
 25 26  1  0  0  0  0
 25 48  1  0  0  0  0
 25 49  1  0  0  0  0
 26 27  1  0  0  0  0
 26 28  1  0  0  0  0
 27 50  1  0  0  0  0
 27 51  1  0  0  0  0
 27 52  1  0  0  0  0
 28 53  1  0  0  0  0
 28 54  1  0  0  0  0
 28 55  1  0  0  0  0
 29 30  1  0  0  0  0
 30 56  1  0  0  0  0
 30 57  1  0  0  0  0
 30 58  1  0  0  0  0
 31 32  1  0  0  0  0
 31 36  2  0  0  0  0
 32 33  2  0  0  0  0
 32 59  1  0  0  0  0
 33 34  1  0  0  0  0
 33 60  1  0  0  0  0
 34 35  2  0  0  0  0
 34 61  1  0  0  0  0
 35 36  1  0  0  0  0
 35 62  1  0  0  0  0
 36 63  1  0  0  0  0
M  END
$$$$
