CHEMBL498088
 OpenBabel04072215383D

 66 69  0  0  0  0  0  0  0  0999 V2000
    1.0128   -0.8192    0.0711 C   0  0  0  0  0  0  0  0  0  0  0  0
    2.4415   -0.7864    0.0754 O   0  0  0  0  0  0  0  0  0  0  0  0
    2.9728   -0.3434   -1.0885 C   0  0  0  0  0  0  0  0  0  0  0  0
    2.3442    0.0305   -2.0657 O   0  0  0  0  0  0  0  0  0  0  0  0
    4.4647   -0.4069   -1.0605 C   0  0  0  0  0  0  0  0  0  0  0  0
    5.2060   -0.8407    0.0640 C   0  0  0  0  0  0  0  0  0  0  0  0
    6.6127   -0.9352    0.0186 C   0  0  0  0  0  0  0  0  0  0  0  0
    7.2693   -0.6033   -1.1555 C   0  0  0  0  0  0  0  0  0  0  0  0
    6.5098   -0.1616   -2.2438 C   0  0  0  0  0  0  0  0  0  0  0  0
    5.1327   -0.0461   -2.2323 C   0  0  0  0  0  0  0  0  0  0  0  0
    7.3176    0.1039   -3.3432 N   0  0  0  0  0  0  0  0  0  0  0  0
    8.6413   -0.1861   -3.0767 C   0  0  0  0  0  0  0  0  0  0  0  0
    9.5181   -0.2139   -3.9196 O   0  0  0  0  0  0  0  0  0  0  0  0
    8.6840   -0.5575   -1.6056 C   0  0  0  0  0  0  0  0  0  0  0  0
    9.8598   -0.7930   -0.9756 C   0  0  0  0  0  0  0  0  0  0  0  0
   11.1407   -0.5405   -1.4617 N   0  0  0  0  0  0  0  0  0  0  0  0
   11.6606    0.6858   -1.9451 C   0  0  0  0  0  0  0  0  0  0  0  0
   10.9282    1.8790   -1.9383 C   0  0  0  0  0  0  0  0  0  0  0  0
   11.3541    2.9982   -2.6666 C   0  0  0  0  0  0  0  0  0  0  0  0
   12.5499    2.9695   -3.3895 C   0  0  0  0  0  0  0  0  0  0  0  0
   12.7835    3.9919   -4.3545 N   0  0  0  0  0  0  0  0  0  0  0  0
   11.8827    3.9374   -5.5198 C   0  0  0  0  0  0  0  0  0  0  0  0
   11.1990    5.2684   -5.8836 C   0  0  0  0  0  0  0  0  0  0  0  0
   11.0724    6.1778   -5.0636 O   0  0  0  0  0  0  0  0  0  0  0  0
   10.6807    5.3581   -7.1838 N   0  0  0  0  0  0  0  0  0  0  0  0
   10.0706    6.6077   -7.6018 C   0  0  0  0  0  0  0  0  0  0  0  0
   10.3943    4.2042   -8.0287 C   0  0  0  0  0  0  0  0  0  0  0  0
   14.0086    4.6104   -4.5921 C   0  0  0  0  0  0  0  0  0  0  0  0
   15.0425    4.6203   -3.4970 C   0  0  0  0  0  0  0  0  0  0  0  0
   14.2653    5.1751   -5.6610 O   0  0  0  0  0  0  0  0  0  0  0  0
   13.3565    1.8319   -3.3043 C   0  0  0  0  0  0  0  0  0  0  0  0
   12.9034    0.6976   -2.6012 C   0  0  0  0  0  0  0  0  0  0  0  0
    9.8697   -1.4644    0.3445 C   0  0  0  0  0  0  0  0  0  0  0  0
    9.8697   -2.8678    0.4167 C   0  0  0  0  0  0  0  0  0  0  0  0
    9.9265   -3.5134    1.6540 C   0  0  0  0  0  0  0  0  0  0  0  0
    9.9800   -2.7640    2.8281 C   0  0  0  0  0  0  0  0  0  0  0  0
    9.9837   -1.3722    2.7673 C   0  0  0  0  0  0  0  0  0  0  0  0
    9.9344   -0.7220    1.5313 C   0  0  0  0  0  0  0  0  0  0  0  0
    0.6722   -1.0467    1.0847 H   0  0  0  0  0  0  0  0  0  0  0  0
    0.6581   -1.6085   -0.6006 H   0  0  0  0  0  0  0  0  0  0  0  0
    0.5933    0.1507   -0.2220 H   0  0  0  0  0  0  0  0  0  0  0  0
    4.6921   -1.1148    0.9832 H   0  0  0  0  0  0  0  0  0  0  0  0
    7.1472   -1.2692    0.9040 H   0  0  0  0  0  0  0  0  0  0  0  0
    4.5930    0.2968   -3.1067 H   0  0  0  0  0  0  0  0  0  0  0  0
    7.0038    0.3479   -4.2661 H   0  0  0  0  0  0  0  0  0  0  0  0
   11.8428   -1.2266   -1.2051 H   0  0  0  0  0  0  0  0  0  0  0  0
    9.9819    1.9444   -1.4109 H   0  0  0  0  0  0  0  0  0  0  0  0
   10.7213    3.8827   -2.6982 H   0  0  0  0  0  0  0  0  0  0  0  0
   11.0872    3.1984   -5.3626 H   0  0  0  0  0  0  0  0  0  0  0  0
   12.4940    3.6073   -6.3681 H   0  0  0  0  0  0  0  0  0  0  0  0
   10.4557    7.4529   -7.0269 H   0  0  0  0  0  0  0  0  0  0  0  0
    8.9870    6.5381   -7.4600 H   0  0  0  0  0  0  0  0  0  0  0  0
   10.2893    6.7750   -8.6612 H   0  0  0  0  0  0  0  0  0  0  0  0
   11.0131    3.3402   -7.7888 H   0  0  0  0  0  0  0  0  0  0  0  0
   10.5612    4.4701   -9.0770 H   0  0  0  0  0  0  0  0  0  0  0  0
    9.3479    3.9299   -7.8806 H   0  0  0  0  0  0  0  0  0  0  0  0
   14.6280    4.3930   -2.5161 H   0  0  0  0  0  0  0  0  0  0  0  0
   15.4820    5.6238   -3.4464 H   0  0  0  0  0  0  0  0  0  0  0  0
   15.8297    3.9048   -3.7514 H   0  0  0  0  0  0  0  0  0  0  0  0
   14.2852    1.7612   -3.8640 H   0  0  0  0  0  0  0  0  0  0  0  0
   13.5070   -0.2068   -2.6314 H   0  0  0  0  0  0  0  0  0  0  0  0
    9.8387   -3.4632   -0.4933 H   0  0  0  0  0  0  0  0  0  0  0  0
    9.9385   -4.6001    1.7009 H   0  0  0  0  0  0  0  0  0  0  0  0
   10.0287   -3.2691    3.7918 H   0  0  0  0  0  0  0  0  0  0  0  0
   10.0341   -0.7875    3.6825 H   0  0  0  0  0  0  0  0  0  0  0  0
    9.9522    0.3645    1.4945 H   0  0  0  0  0  0  0  0  0  0  0  0
  1  2  1  0  0  0  0
  1 39  1  0  0  0  0
  1 40  1  0  0  0  0
  1 41  1  0  0  0  0
  2  3  1  0  0  0  0
  3  4  2  0  0  0  0
  3  5  1  0  0  0  0
  5  6  1  0  0  0  0
  5 10  2  0  0  0  0
  6  7  2  0  0  0  0
  6 42  1  0  0  0  0
  7  8  1  0  0  0  0
  7 43  1  0  0  0  0
  8  9  2  0  0  0  0
  8 14  1  0  0  0  0
  9 10  1  0  0  0  0
  9 11  1  0  0  0  0
 10 44  1  0  0  0  0
 11 12  1  0  0  0  0
 11 45  1  0  0  0  0
 12 13  2  0  0  0  0
 12 14  1  0  0  0  0
 14 15  2  0  0  0  0
 15 16  1  0  0  0  0
 15 33  1  0  0  0  0
 16 17  1  0  0  0  0
 16 46  1  0  0  0  0
 17 18  1  0  0  0  0
 17 32  2  0  0  0  0
 18 19  2  0  0  0  0
 18 47  1  0  0  0  0
 19 20  1  0  0  0  0
 19 48  1  0  0  0  0
 20 21  1  0  0  0  0
 20 31  2  0  0  0  0
 21 22  1  0  0  0  0
 21 28  1  0  0  0  0
 22 23  1  0  0  0  0
 22 49  1  0  0  0  0
 22 50  1  0  0  0  0
 23 24  2  0  0  0  0
 23 25  1  0  0  0  0
 25 26  1  0  0  0  0
 25 27  1  0  0  0  0
 26 51  1  0  0  0  0
 26 52  1  0  0  0  0
 26 53  1  0  0  0  0
 27 54  1  0  0  0  0
 27 55  1  0  0  0  0
 27 56  1  0  0  0  0
 28 29  1  0  0  0  0
 28 30  2  0  0  0  0
 29 57  1  0  0  0  0
 29 58  1  0  0  0  0
 29 59  1  0  0  0  0
 31 32  1  0  0  0  0
 31 60  1  0  0  0  0
 32 61  1  0  0  0  0
 33 34  1  0  0  0  0
 33 38  2  0  0  0  0
 34 35  2  0  0  0  0
 34 62  1  0  0  0  0
 35 36  1  0  0  0  0
 35 63  1  0  0  0  0
 36 37  2  0  0  0  0
 36 64  1  0  0  0  0
 37 38  1  0  0  0  0
 37 65  1  0  0  0  0
 38 66  1  0  0  0  0
M  END
$$$$
