CHEMBL3970423
 OpenBabel04072215373D

 76 80  0  0  0  0  0  0  0  0999 V2000
    0.5563   -3.7668   -0.9859 C   0  0  0  0  0  0  0  0  0  0  0  0
    1.8239   -4.1194   -0.4292 O   0  0  0  0  0  0  0  0  0  0  0  0
    2.8332   -3.1806   -0.5142 C   0  0  0  0  0  0  0  0  0  0  0  0
    2.6550   -1.9098   -1.0593 C   0  0  0  0  0  0  0  0  0  0  0  0
    3.7072   -1.0029   -1.0714 C   0  0  0  0  0  0  0  0  0  0  0  0
    3.6431    0.2963   -1.4929 O   0  0  0  0  0  0  0  0  0  0  0  0
    2.4390    0.7083   -2.1249 C   0  0  0  0  0  0  0  0  0  0  0  0
    4.9528   -1.3828   -0.5611 C   0  0  0  0  0  0  0  0  0  0  0  0
    5.1785   -2.6231    0.0519 C   0  0  0  0  0  0  0  0  0  0  0  0
    6.3538   -2.8563    0.8009 N   0  0  0  0  0  0  0  0  0  0  0  0
    6.8668   -1.7217    1.6975 C   0  0  0  0  0  0  0  0  0  0  0  0
    5.8297   -0.7682    2.3457 C   0  0  0  0  0  0  0  0  0  0  0  0
    6.4401    0.4847    3.0495 C   0  0  0  0  0  0  0  0  0  0  0  0
    7.1549    0.2241    4.3791 C   0  0  0  0  0  0  0  0  0  0  0  0
    6.1945   -0.1616    5.5125 C   0  0  0  0  0  0  0  0  0  0  0  0
    5.0907    0.8029    5.7068 N   0  0  0  0  0  0  0  0  0  0  0  0
    4.1560    0.3590    6.7789 C   0  0  0  0  0  0  0  0  0  0  0  0
    4.8596    0.2406    8.1416 C   0  0  0  0  0  0  0  0  0  0  0  0
    2.9622    1.3135    6.9691 C   0  0  0  0  0  0  0  0  0  0  0  0
    4.3873    1.0539    4.4358 C   0  0  0  0  0  0  0  0  0  0  0  0
    5.3419    1.5225    3.3356 C   0  0  0  0  0  0  0  0  0  0  0  0
    7.3999   -3.8428    0.6251 C   0  0  0  0  0  0  0  0  0  0  0  0
    7.7934   -4.4540    1.8148 C   0  0  0  0  0  0  0  0  0  0  0  0
    9.0626   -4.9988    1.9164 C   0  0  0  0  0  0  0  0  0  0  0  0
    9.9191   -5.0676    0.8682 C   0  0  0  0  0  0  0  0  0  0  0  0
   11.1303   -5.4699    1.2758 N   0  0  0  0  0  0  0  0  0  0  0  0
   12.0467   -5.6912    0.3311 C   0  0  0  0  0  0  0  0  0  0  0  0
   11.7870   -5.5975   -1.0162 C   0  0  0  0  0  0  0  0  0  0  0  0
   12.9113   -6.0956   -1.8369 C   0  0  0  0  0  0  0  0  0  0  0  0
   13.2223   -7.4466   -2.2025 C   0  0  0  0  0  0  0  0  0  0  0  0
   14.5217   -7.6512   -2.4754 N   0  0  0  0  0  0  0  0  0  0  0  0
   15.0864   -6.4558   -2.2444 N   0  0  0  0  0  0  0  0  0  0  0  0
   16.5079   -6.2581   -2.4454 C   0  0  0  0  0  0  0  0  0  0  0  0
   14.1883   -5.5360   -1.7643 C   0  0  0  0  0  0  0  0  0  0  0  0
   10.5628   -5.0993   -1.4493 N   0  0  0  0  0  0  0  0  0  0  0  0
    9.5587   -4.7564   -0.4720 C   0  0  0  0  0  0  0  0  0  0  0  0
    8.2379   -4.0822   -0.5291 C   0  0  0  0  0  0  0  0  0  0  0  0
    4.0912   -3.5326    0.0419 C   0  0  0  0  0  0  0  0  0  0  0  0
   -0.1397   -4.6000   -0.8372 H   0  0  0  0  0  0  0  0  0  0  0  0
    0.6326   -3.5915   -2.0675 H   0  0  0  0  0  0  0  0  0  0  0  0
    0.1212   -2.8910   -0.4812 H   0  0  0  0  0  0  0  0  0  0  0  0
    1.6879   -1.6120   -1.4468 H   0  0  0  0  0  0  0  0  0  0  0  0
    2.5677    1.7480   -2.4382 H   0  0  0  0  0  0  0  0  0  0  0  0
    1.5895    0.6727   -1.4338 H   0  0  0  0  0  0  0  0  0  0  0  0
    2.2476    0.1073   -3.0194 H   0  0  0  0  0  0  0  0  0  0  0  0
    5.7509   -0.6439   -0.5726 H   0  0  0  0  0  0  0  0  0  0  0  0
    7.6064   -1.1465    1.1301 H   0  0  0  0  0  0  0  0  0  0  0  0
    7.3958   -2.1532    2.5552 H   0  0  0  0  0  0  0  0  0  0  0  0
    5.1962   -1.3354    3.0354 H   0  0  0  0  0  0  0  0  0  0  0  0
    5.1575   -0.3616    1.5919 H   0  0  0  0  0  0  0  0  0  0  0  0
    7.1597    0.9433    2.3580 H   0  0  0  0  0  0  0  0  0  0  0  0
    7.6791    1.1446    4.6796 H   0  0  0  0  0  0  0  0  0  0  0  0
    7.9309   -0.5398    4.2659 H   0  0  0  0  0  0  0  0  0  0  0  0
    6.8052   -0.2117    6.4210 H   0  0  0  0  0  0  0  0  0  0  0  0
    5.8014   -1.1674    5.3276 H   0  0  0  0  0  0  0  0  0  0  0  0
    3.7499   -0.6281    6.5194 H   0  0  0  0  0  0  0  0  0  0  0  0
    5.3447    1.1828    8.4199 H   0  0  0  0  0  0  0  0  0  0  0  0
    5.6119   -0.5532    8.1506 H   0  0  0  0  0  0  0  0  0  0  0  0
    4.1398   -0.0095    8.9296 H   0  0  0  0  0  0  0  0  0  0  0  0
    3.2989    2.3418    7.1419 H   0  0  0  0  0  0  0  0  0  0  0  0
    2.3544    1.0115    7.8297 H   0  0  0  0  0  0  0  0  0  0  0  0
    2.2903    1.3072    6.1051 H   0  0  0  0  0  0  0  0  0  0  0  0
    3.6497    1.8538    4.5555 H   0  0  0  0  0  0  0  0  0  0  0  0
    3.8424    0.1585    4.1123 H   0  0  0  0  0  0  0  0  0  0  0  0
    5.8026    2.4715    3.6452 H   0  0  0  0  0  0  0  0  0  0  0  0
    4.7754    1.7434    2.4235 H   0  0  0  0  0  0  0  0  0  0  0  0
    7.1735   -4.3916    2.7129 H   0  0  0  0  0  0  0  0  0  0  0  0
    9.4029   -5.3209    2.8933 H   0  0  0  0  0  0  0  0  0  0  0  0
   13.0150   -5.9825    0.7204 H   0  0  0  0  0  0  0  0  0  0  0  0
   12.5787   -8.3180   -2.1997 H   0  0  0  0  0  0  0  0  0  0  0  0
   16.9759   -7.1783   -2.8106 H   0  0  0  0  0  0  0  0  0  0  0  0
   16.9743   -5.9605   -1.5011 H   0  0  0  0  0  0  0  0  0  0  0  0
   16.6306   -5.4672   -3.1898 H   0  0  0  0  0  0  0  0  0  0  0  0
   14.5424   -4.6043   -1.3469 H   0  0  0  0  0  0  0  0  0  0  0  0
    7.9029   -3.6966   -1.4966 H   0  0  0  0  0  0  0  0  0  0  0  0
    4.1845   -4.4941    0.5430 H   0  0  0  0  0  0  0  0  0  0  0  0
  1  2  1  0  0  0  0
  1 39  1  0  0  0  0
  1 40  1  0  0  0  0
  1 41  1  0  0  0  0
  2  3  1  0  0  0  0
  3  4  1  0  0  0  0
  3 38  2  0  0  0  0
  4  5  2  0  0  0  0
  4 42  1  0  0  0  0
  5  6  1  0  0  0  0
  5  8  1  0  0  0  0
  6  7  1  0  0  0  0
  7 43  1  0  0  0  0
  7 44  1  0  0  0  0
  7 45  1  0  0  0  0
  8  9  2  0  0  0  0
  8 46  1  0  0  0  0
  9 10  1  0  0  0  0
  9 38  1  0  0  0  0
 10 11  1  0  0  0  0
 10 22  1  0  0  0  0
 11 12  1  0  0  0  0
 11 47  1  0  0  0  0
 11 48  1  0  0  0  0
 12 13  1  0  0  0  0
 12 49  1  0  0  0  0
 12 50  1  0  0  0  0
 13 14  1  0  0  0  0
 13 21  1  0  0  0  0
 13 51  1  0  0  0  0
 14 15  1  0  0  0  0
 14 52  1  0  0  0  0
 14 53  1  0  0  0  0
 15 16  1  0  0  0  0
 15 54  1  0  0  0  0
 15 55  1  0  0  0  0
 16 17  1  0  0  0  0
 16 20  1  0  0  0  0
 17 18  1  0  0  0  0
 17 19  1  0  0  0  0
 17 56  1  0  0  0  0
 18 57  1  0  0  0  0
 18 58  1  0  0  0  0
 18 59  1  0  0  0  0
 19 60  1  0  0  0  0
 19 61  1  0  0  0  0
 19 62  1  0  0  0  0
 20 21  1  0  0  0  0
 20 63  1  0  0  0  0
 20 64  1  0  0  0  0
 21 65  1  0  0  0  0
 21 66  1  0  0  0  0
 22 23  1  0  0  0  0
 22 37  2  0  0  0  0
 23 24  2  0  0  0  0
 23 67  1  0  0  0  0
 24 25  1  0  0  0  0
 24 68  1  0  0  0  0
 25 26  1  0  0  0  0
 25 36  2  0  0  0  0
 26 27  2  0  0  0  0
 27 28  1  0  0  0  0
 27 69  1  0  0  0  0
 28 29  1  0  0  0  0
 28 35  2  0  0  0  0
 29 30  1  0  0  0  0
 29 34  2  0  0  0  0
 30 31  2  0  0  0  0
 30 70  1  0  0  0  0
 31 32  1  0  0  0  0
 32 33  1  0  0  0  0
 32 34  1  0  0  0  0
 33 71  1  0  0  0  0
 33 72  1  0  0  0  0
 33 73  1  0  0  0  0
 34 74  1  0  0  0  0
 35 36  1  0  0  0  0
 36 37  1  0  0  0  0
 37 75  1  0  0  0  0
 38 76  1  0  0  0  0
M  END
$$$$
