CHEMBL3974693
 OpenBabel04072215373D

 71 75  0  0  0  0  0  0  0  0999 V2000
    2.1071   -1.8496   -1.5311 C   0  0  0  0  0  0  0  0  0  0  0  0
    3.2729   -1.2772   -0.9455 O   0  0  0  0  0  0  0  0  0  0  0  0
    3.5642   -1.6370    0.3458 C   0  0  0  0  0  0  0  0  0  0  0  0
    2.7073   -2.3310    1.1957 C   0  0  0  0  0  0  0  0  0  0  0  0
    3.1150   -2.6546    2.4902 C   0  0  0  0  0  0  0  0  0  0  0  0
    2.3367   -3.3333    3.4046 O   0  0  0  0  0  0  0  0  0  0  0  0
    1.0716   -3.8266    2.9226 C   0  0  0  0  0  0  0  0  0  0  0  0
    0.3788   -4.6417    4.0132 C   0  0  0  0  0  0  0  0  0  0  0  0
    0.0507   -3.8177    5.1273 O   0  0  0  0  0  0  0  0  0  0  0  0
    4.3994   -2.2615    2.9236 C   0  0  0  0  0  0  0  0  0  0  0  0
    5.2871   -1.5450    2.0915 C   0  0  0  0  0  0  0  0  0  0  0  0
    6.5195   -1.0833    2.6166 N   0  0  0  0  0  0  0  0  0  0  0  0
    7.0570    0.2412    2.1098 C   0  0  0  0  0  0  0  0  0  0  0  0
    6.1553    1.4869    2.1338 C   0  0  0  0  0  0  0  0  0  0  0  0
    5.7670    2.1000    3.4959 C   0  0  0  0  0  0  0  0  0  0  0  0
    5.1019    3.4177    3.3229 N   0  0  0  0  0  0  0  0  0  0  0  0
    4.7319    4.0638    4.5973 C   0  0  0  0  0  0  0  0  0  0  0  0
    3.3736    3.4784    4.9400 C   0  0  0  0  0  0  0  0  0  0  0  0
    2.7058    3.3198    3.5867 C   0  0  0  0  0  0  0  0  0  0  0  0
    3.8418    3.3734    2.5725 C   0  0  0  0  0  0  0  0  0  0  0  0
    7.6764   -1.9001    2.9397 C   0  0  0  0  0  0  0  0  0  0  0  0
    8.4814   -1.3879    3.9588 C   0  0  0  0  0  0  0  0  0  0  0  0
    9.8182   -1.7299    4.0305 C   0  0  0  0  0  0  0  0  0  0  0  0
   10.3576   -2.7019    3.2356 C   0  0  0  0  0  0  0  0  0  0  0  0
   11.6882   -2.8082    3.3165 N   0  0  0  0  0  0  0  0  0  0  0  0
   12.2464   -3.8563    2.7017 C   0  0  0  0  0  0  0  0  0  0  0  0
   11.4909   -4.8251    2.0747 C   0  0  0  0  0  0  0  0  0  0  0  0
   12.1692   -6.0853    1.7911 C   0  0  0  0  0  0  0  0  0  0  0  0
   12.1886   -7.2873    2.5462 C   0  0  0  0  0  0  0  0  0  0  0  0
   13.0898   -8.1710    2.0987 N   0  0  0  0  0  0  0  0  0  0  0  0
   13.6490   -7.5393    1.0529 N   0  0  0  0  0  0  0  0  0  0  0  0
   14.4341   -8.2748    0.0891 C   0  0  0  0  0  0  0  0  0  0  0  0
   13.2618   -6.2299    0.9513 C   0  0  0  0  0  0  0  0  0  0  0  0
   10.1356   -4.6562    1.8751 N   0  0  0  0  0  0  0  0  0  0  0  0
    9.5395   -3.5190    2.4159 C   0  0  0  0  0  0  0  0  0  0  0  0
    8.1709   -3.0375    2.2389 C   0  0  0  0  0  0  0  0  0  0  0  0
    4.8311   -1.2380    0.8017 C   0  0  0  0  0  0  0  0  0  0  0  0
    2.1239   -1.6274   -2.6028 H   0  0  0  0  0  0  0  0  0  0  0  0
    1.1995   -1.4029   -1.1110 H   0  0  0  0  0  0  0  0  0  0  0  0
    2.0938   -2.9398   -1.4236 H   0  0  0  0  0  0  0  0  0  0  0  0
    1.7203   -2.6081    0.8466 H   0  0  0  0  0  0  0  0  0  0  0  0
    1.2301   -4.4800    2.0565 H   0  0  0  0  0  0  0  0  0  0  0  0
    0.4286   -2.9787    2.6561 H   0  0  0  0  0  0  0  0  0  0  0  0
    1.0155   -5.4559    4.3677 H   0  0  0  0  0  0  0  0  0  0  0  0
   -0.5549   -5.0691    3.6279 H   0  0  0  0  0  0  0  0  0  0  0  0
    0.8842   -3.3989    5.4084 H   0  0  0  0  0  0  0  0  0  0  0  0
    4.6906   -2.4782    3.9499 H   0  0  0  0  0  0  0  0  0  0  0  0
    7.4010    0.0905    1.0764 H   0  0  0  0  0  0  0  0  0  0  0  0
    7.9566    0.5446    2.6590 H   0  0  0  0  0  0  0  0  0  0  0  0
    5.2658    1.2911    1.5375 H   0  0  0  0  0  0  0  0  0  0  0  0
    6.7186    2.2640    1.5994 H   0  0  0  0  0  0  0  0  0  0  0  0
    6.6890    2.2660    4.0715 H   0  0  0  0  0  0  0  0  0  0  0  0
    5.1468    1.4082    4.0747 H   0  0  0  0  0  0  0  0  0  0  0  0
    4.6204    5.1458    4.4292 H   0  0  0  0  0  0  0  0  0  0  0  0
    5.4669    3.9432    5.3989 H   0  0  0  0  0  0  0  0  0  0  0  0
    2.7893    4.1160    5.6110 H   0  0  0  0  0  0  0  0  0  0  0  0
    3.4871    2.4995    5.4192 H   0  0  0  0  0  0  0  0  0  0  0  0
    1.9994    4.1376    3.4029 H   0  0  0  0  0  0  0  0  0  0  0  0
    2.1548    2.3758    3.5309 H   0  0  0  0  0  0  0  0  0  0  0  0
    3.7581    4.2985    1.9877 H   0  0  0  0  0  0  0  0  0  0  0  0
    3.7575    2.5597    1.8513 H   0  0  0  0  0  0  0  0  0  0  0  0
    8.1072   -0.5996    4.6070 H   0  0  0  0  0  0  0  0  0  0  0  0
   10.4645   -1.1899    4.7218 H   0  0  0  0  0  0  0  0  0  0  0  0
   13.3258   -3.9255    2.7883 H   0  0  0  0  0  0  0  0  0  0  0  0
   11.6104   -7.5448    3.4251 H   0  0  0  0  0  0  0  0  0  0  0  0
   14.4424   -9.3366    0.3505 H   0  0  0  0  0  0  0  0  0  0  0  0
   15.4516   -7.8790    0.0654 H   0  0  0  0  0  0  0  0  0  0  0  0
   13.9511   -8.1468   -0.8840 H   0  0  0  0  0  0  0  0  0  0  0  0
   13.7601   -5.5516    0.2729 H   0  0  0  0  0  0  0  0  0  0  0  0
    7.5448   -3.5445    1.5084 H   0  0  0  0  0  0  0  0  0  0  0  0
    5.4551   -0.6749    0.1140 H   0  0  0  0  0  0  0  0  0  0  0  0
  1  2  1  0  0  0  0
  1 38  1  0  0  0  0
  1 39  1  0  0  0  0
  1 40  1  0  0  0  0
  2  3  1  0  0  0  0
  3  4  1  0  0  0  0
  3 37  2  0  0  0  0
  4  5  2  0  0  0  0
  4 41  1  0  0  0  0
  5  6  1  0  0  0  0
  5 10  1  0  0  0  0
  6  7  1  0  0  0  0
  7  8  1  0  0  0  0
  7 42  1  0  0  0  0
  7 43  1  0  0  0  0
  8  9  1  0  0  0  0
  8 44  1  0  0  0  0
  8 45  1  0  0  0  0
  9 46  1  0  0  0  0
 10 11  2  0  0  0  0
 10 47  1  0  0  0  0
 11 12  1  0  0  0  0
 11 37  1  0  0  0  0
 12 13  1  0  0  0  0
 12 21  1  0  0  0  0
 13 14  1  0  0  0  0
 13 48  1  0  0  0  0
 13 49  1  0  0  0  0
 14 15  1  0  0  0  0
 14 50  1  0  0  0  0
 14 51  1  0  0  0  0
 15 16  1  0  0  0  0
 15 52  1  0  0  0  0
 15 53  1  0  0  0  0
 16 17  1  0  0  0  0
 16 20  1  0  0  0  0
 17 18  1  0  0  0  0
 17 54  1  0  0  0  0
 17 55  1  0  0  0  0
 18 19  1  0  0  0  0
 18 56  1  0  0  0  0
 18 57  1  0  0  0  0
 19 20  1  0  0  0  0
 19 58  1  0  0  0  0
 19 59  1  0  0  0  0
 20 60  1  0  0  0  0
 20 61  1  0  0  0  0
 21 22  1  0  0  0  0
 21 36  2  0  0  0  0
 22 23  2  0  0  0  0
 22 62  1  0  0  0  0
 23 24  1  0  0  0  0
 23 63  1  0  0  0  0
 24 25  1  0  0  0  0
 24 35  2  0  0  0  0
 25 26  2  0  0  0  0
 26 27  1  0  0  0  0
 26 64  1  0  0  0  0
 27 28  1  0  0  0  0
 27 34  2  0  0  0  0
 28 29  1  0  0  0  0
 28 33  2  0  0  0  0
 29 30  2  0  0  0  0
 29 65  1  0  0  0  0
 30 31  1  0  0  0  0
 31 32  1  0  0  0  0
 31 33  1  0  0  0  0
 32 66  1  0  0  0  0
 32 67  1  0  0  0  0
 32 68  1  0  0  0  0
 33 69  1  0  0  0  0
 34 35  1  0  0  0  0
 35 36  1  0  0  0  0
 36 70  1  0  0  0  0
 37 71  1  0  0  0  0
M  END
$$$$
