CHEMBL1096972
 OpenBabel04072215363D

 44 47  0  0  0  0  0  0  0  0999 V2000
   -2.5964    0.7983   -3.0575 C   0  0  0  0  0  0  0  0  0  0  0  0
   -1.5433    0.6450   -2.5066 C   0  0  0  0  0  0  0  0  0  0  0  0
   -0.2925    0.4380   -1.8473 C   0  0  0  0  0  0  0  0  0  0  0  0
    0.2499   -0.8488   -1.7900 C   0  0  0  0  0  0  0  0  0  0  0  0
    1.4605   -1.0583   -1.1368 C   0  0  0  0  0  0  0  0  0  0  0  0
    2.1333    0.0206   -0.5664 C   0  0  0  0  0  0  0  0  0  0  0  0
    1.6240    1.3253   -0.6514 C   0  0  0  0  0  0  0  0  0  0  0  0
    2.3126    2.4303   -0.1018 N   0  0  0  0  0  0  0  0  0  0  0  0
    3.7135    2.5158    0.0017 C   0  0  0  0  0  0  0  0  0  0  0  0
    4.4820    1.9103   -0.9462 N   0  0  0  0  0  0  0  0  0  0  0  0
    5.8177    1.9211   -0.8229 C   0  0  0  0  0  0  0  0  0  0  0  0
    6.5425    2.4696    0.1605 N   0  0  0  0  0  0  0  0  0  0  0  0
    5.7600    3.0839    1.0557 C   0  0  0  0  0  0  0  0  0  0  0  0
    6.2293    3.7134    2.1720 N   0  0  0  0  0  0  0  0  0  0  0  0
    5.1882    4.2665    2.8815 C   0  0  0  0  0  0  0  0  0  0  0  0
    5.3772    5.0152    4.1670 C   0  0  0  0  0  0  0  0  0  0  0  0
    6.7153    5.7535    4.2636 C   0  0  0  0  0  0  0  0  0  0  0  0
    6.8641    6.5064    5.5609 C   0  0  0  0  0  0  0  0  0  0  0  0
    7.3850    5.8707    6.6966 C   0  0  0  0  0  0  0  0  0  0  0  0
    7.5684    6.5830    7.8822 C   0  0  0  0  0  0  0  0  0  0  0  0
    7.2256    7.9323    7.9451 C   0  0  0  0  0  0  0  0  0  0  0  0
    6.6781    8.5646    6.8304 C   0  0  0  0  0  0  0  0  0  0  0  0
    6.4909    7.8536    5.6447 C   0  0  0  0  0  0  0  0  0  0  0  0
    4.0246    3.9438    2.1983 C   0  0  0  0  0  0  0  0  0  0  0  0
    4.3766    3.1795    1.0477 C   0  0  0  0  0  0  0  0  0  0  0  0
    0.3851    1.5184   -1.2723 C   0  0  0  0  0  0  0  0  0  0  0  0
   -3.5344    0.9311   -3.5468 H   0  0  0  0  0  0  0  0  0  0  0  0
   -0.2640   -1.6860   -2.2492 H   0  0  0  0  0  0  0  0  0  0  0  0
    1.8893   -2.0554   -1.0815 H   0  0  0  0  0  0  0  0  0  0  0  0
    3.0775   -0.1657   -0.0604 H   0  0  0  0  0  0  0  0  0  0  0  0
    1.8296    2.8252    0.6996 H   0  0  0  0  0  0  0  0  0  0  0  0
    6.3682    1.4136   -1.6083 H   0  0  0  0  0  0  0  0  0  0  0  0
    7.2110    3.7430    2.4093 H   0  0  0  0  0  0  0  0  0  0  0  0
    5.2804    4.3050    4.9979 H   0  0  0  0  0  0  0  0  0  0  0  0
    4.5572    5.7371    4.2756 H   0  0  0  0  0  0  0  0  0  0  0  0
    6.8284    6.4497    3.4217 H   0  0  0  0  0  0  0  0  0  0  0  0
    7.5545    5.0509    4.1772 H   0  0  0  0  0  0  0  0  0  0  0  0
    7.6639    4.8198    6.6614 H   0  0  0  0  0  0  0  0  0  0  0  0
    7.9874    6.0878    8.7543 H   0  0  0  0  0  0  0  0  0  0  0  0
    7.3860    8.4917    8.8630 H   0  0  0  0  0  0  0  0  0  0  0  0
    6.4046    9.6152    6.8812 H   0  0  0  0  0  0  0  0  0  0  0  0
    6.0648    8.3610    4.7820 H   0  0  0  0  0  0  0  0  0  0  0  0
    3.0248    4.2202    2.5090 H   0  0  0  0  0  0  0  0  0  0  0  0
   -0.0315    2.5207   -1.3473 H   0  0  0  0  0  0  0  0  0  0  0  0
  1  2  3  0  0  0  0
  1 27  1  0  0  0  0
  2  3  1  0  0  0  0
  3  4  1  0  0  0  0
  3 26  2  0  0  0  0
  4  5  2  0  0  0  0
  4 28  1  0  0  0  0
  5  6  1  0  0  0  0
  5 29  1  0  0  0  0
  6  7  2  0  0  0  0
  6 30  1  0  0  0  0
  7  8  1  0  0  0  0
  7 26  1  0  0  0  0
  8  9  1  0  0  0  0
  8 31  1  0  0  0  0
  9 10  1  0  0  0  0
  9 25  2  0  0  0  0
 10 11  2  0  0  0  0
 11 12  1  0  0  0  0
 11 32  1  0  0  0  0
 12 13  2  0  0  0  0
 13 14  1  0  0  0  0
 13 25  1  0  0  0  0
 14 15  1  0  0  0  0
 14 33  1  0  0  0  0
 15 16  1  0  0  0  0
 15 24  2  0  0  0  0
 16 17  1  0  0  0  0
 16 34  1  0  0  0  0
 16 35  1  0  0  0  0
 17 18  1  0  0  0  0
 17 36  1  0  0  0  0
 17 37  1  0  0  0  0
 18 19  1  0  0  0  0
 18 23  2  0  0  0  0
 19 20  2  0  0  0  0
 19 38  1  0  0  0  0
 20 21  1  0  0  0  0
 20 39  1  0  0  0  0
 21 22  2  0  0  0  0
 21 40  1  0  0  0  0
 22 23  1  0  0  0  0
 22 41  1  0  0  0  0
 23 42  1  0  0  0  0
 24 25  1  0  0  0  0
 24 43  1  0  0  0  0
 26 44  1  0  0  0  0
M  END
$$$$
