CHEMBL489058
 OpenBabel04072215383D

 71 75  0  0  0  0  0  0  0  0999 V2000
    6.5031   -6.5741    4.9865 C   0  0  0  0  0  0  0  0  0  0  0  0
    5.4204   -6.8487    3.9496 C   0  0  0  0  0  0  0  0  0  0  0  0
    5.9473   -7.2418    2.6314 N   0  0  0  0  0  0  0  0  0  0  0  0
    6.7951   -6.1981    2.0158 C   0  0  0  0  0  0  0  0  0  0  0  0
    6.0110   -4.9355    1.5948 C   0  0  0  0  0  0  0  0  0  0  0  0
    4.9120   -5.2068    0.6466 N   0  0  0  0  0  0  0  0  0  0  0  0
    5.3923   -5.6138   -0.6832 C   0  0  0  0  0  0  0  0  0  0  0  0
    6.3017   -4.5920   -1.3819 C   0  0  0  0  0  0  0  0  0  0  0  0
    6.7822   -5.0191   -2.7391 C   0  0  0  0  0  0  0  0  0  0  0  0
    6.1651   -5.9054   -3.5346 C   0  0  0  0  0  0  0  0  0  0  0  0
    6.6272   -6.3361   -4.8543 C   0  0  0  0  0  0  0  0  0  0  0  0
    7.8108   -5.8878   -5.4334 C   0  0  0  0  0  0  0  0  0  0  0  0
    8.1653   -6.3064   -6.7106 C   0  0  0  0  0  0  0  0  0  0  0  0
    7.3600   -7.2123   -7.4344 C   0  0  0  0  0  0  0  0  0  0  0  0
    7.6806   -7.6871   -8.7389 C   0  0  0  0  0  0  0  0  0  0  0  0
    8.8340   -7.1651   -9.3849 N   0  0  0  0  0  0  0  0  0  0  0  0
    9.1006   -6.8664  -10.7324 C   0  0  0  0  0  0  0  0  0  0  0  0
    8.0930   -6.6037  -11.6637 C   0  0  0  0  0  0  0  0  0  0  0  0
    8.3801   -6.5269  -13.0313 C   0  0  0  0  0  0  0  0  0  0  0  0
    9.6929   -6.6633  -13.4989 C   0  0  0  0  0  0  0  0  0  0  0  0
    9.9506   -6.8478  -15.2591 S   0  0  0  0  0  0  0  0  0  0  0  0
   10.0217   -5.1933  -15.7599 C   0  0  0  0  0  0  0  0  0  0  0  0
    9.5539   -4.1520  -15.1082 N   0  0  0  0  0  0  0  0  0  0  0  0
    9.8271   -3.0718  -15.9074 C   0  0  0  0  0  0  0  0  0  0  0  0
   10.4640   -3.4634  -17.0613 C   0  0  0  0  0  0  0  0  0  0  0  0
   10.5658   -4.8261  -16.9650 N   0  0  0  0  0  0  0  0  0  0  0  0
   11.1443   -5.6868  -17.9689 C   0  0  0  0  0  0  0  0  0  0  0  0
   10.7206   -6.8084  -12.5563 C   0  0  0  0  0  0  0  0  0  0  0  0
   12.3892   -6.9126  -13.0091 Cl  0  0  0  0  0  0  0  0  0  0  0  0
   10.4229   -6.9166  -11.1899 C   0  0  0  0  0  0  0  0  0  0  0  0
    6.8171   -8.6229   -9.3270 C   0  0  0  0  0  0  0  0  0  0  0  0
    7.0893   -9.3172  -10.5478 C   0  0  0  0  0  0  0  0  0  0  0  0
    7.2646   -9.9166  -11.5225 N   0  0  0  0  0  0  0  0  0  0  0  0
    5.6711   -8.9956   -8.6414 C   0  0  0  0  0  0  0  0  0  0  0  0
    5.3331   -8.5354   -7.4237 N   0  0  0  0  0  0  0  0  0  0  0  0
    6.1677   -7.6775   -6.8306 C   0  0  0  0  0  0  0  0  0  0  0  0
    5.8257   -7.2330   -5.5681 C   0  0  0  0  0  0  0  0  0  0  0  0
    4.0542   -6.2834    1.2022 C   0  0  0  0  0  0  0  0  0  0  0  0
    4.8248   -7.5357    1.7066 C   0  0  0  0  0  0  0  0  0  0  0  0
    6.0390   -6.3427    5.9503 H   0  0  0  0  0  0  0  0  0  0  0  0
    7.1234   -5.7135    4.7196 H   0  0  0  0  0  0  0  0  0  0  0  0
    7.1511   -7.4457    5.1192 H   0  0  0  0  0  0  0  0  0  0  0  0
    4.7652   -5.9730    3.8893 H   0  0  0  0  0  0  0  0  0  0  0  0
    4.8043   -7.6705    4.3348 H   0  0  0  0  0  0  0  0  0  0  0  0
    7.2925   -6.6318    1.1380 H   0  0  0  0  0  0  0  0  0  0  0  0
    7.6234   -5.9167    2.6732 H   0  0  0  0  0  0  0  0  0  0  0  0
    6.7022   -4.1839    1.2012 H   0  0  0  0  0  0  0  0  0  0  0  0
    5.5825   -4.4534    2.4819 H   0  0  0  0  0  0  0  0  0  0  0  0
    4.5024   -5.7645   -1.3062 H   0  0  0  0  0  0  0  0  0  0  0  0
    5.9169   -6.5768   -0.6482 H   0  0  0  0  0  0  0  0  0  0  0  0
    7.2062   -4.4308   -0.7851 H   0  0  0  0  0  0  0  0  0  0  0  0
    5.7950   -3.6247   -1.4733 H   0  0  0  0  0  0  0  0  0  0  0  0
    7.7139   -4.5498   -3.0391 H   0  0  0  0  0  0  0  0  0  0  0  0
    5.2232   -6.3498   -3.2233 H   0  0  0  0  0  0  0  0  0  0  0  0
    8.4744   -5.2025   -4.9155 H   0  0  0  0  0  0  0  0  0  0  0  0
    9.0845   -5.9044   -7.1276 H   0  0  0  0  0  0  0  0  0  0  0  0
    9.6415   -7.0854   -8.7753 H   0  0  0  0  0  0  0  0  0  0  0  0
    7.0591   -6.4931  -11.3470 H   0  0  0  0  0  0  0  0  0  0  0  0
    7.5592   -6.3946  -13.7335 H   0  0  0  0  0  0  0  0  0  0  0  0
    9.5524   -2.0680  -15.6106 H   0  0  0  0  0  0  0  0  0  0  0  0
   10.8341   -2.9068  -17.9109 H   0  0  0  0  0  0  0  0  0  0  0  0
   11.5536   -5.0772  -18.7792 H   0  0  0  0  0  0  0  0  0  0  0  0
   10.3609   -6.3384  -18.3650 H   0  0  0  0  0  0  0  0  0  0  0  0
   11.9486   -6.2717  -17.5159 H   0  0  0  0  0  0  0  0  0  0  0  0
   11.2328   -7.0893  -10.4858 H   0  0  0  0  0  0  0  0  0  0  0  0
    4.9715   -9.7183   -9.0563 H   0  0  0  0  0  0  0  0  0  0  0  0
    4.8969   -7.6025   -5.1357 H   0  0  0  0  0  0  0  0  0  0  0  0
    3.3073   -6.5929    0.4594 H   0  0  0  0  0  0  0  0  0  0  0  0
    3.4731   -5.8581    2.0290 H   0  0  0  0  0  0  0  0  0  0  0  0
    5.2310   -8.0808    0.8443 H   0  0  0  0  0  0  0  0  0  0  0  0
    4.1195   -8.2340    2.1738 H   0  0  0  0  0  0  0  0  0  0  0  0
  1  2  1  0  0  0  0
  1 40  1  0  0  0  0
  1 41  1  0  0  0  0
  1 42  1  0  0  0  0
  2  3  1  0  0  0  0
  2 43  1  0  0  0  0
  2 44  1  0  0  0  0
  3  4  1  0  0  0  0
  3 39  1  0  0  0  0
  4  5  1  0  0  0  0
  4 45  1  0  0  0  0
  4 46  1  0  0  0  0
  5  6  1  0  0  0  0
  5 47  1  0  0  0  0
  5 48  1  0  0  0  0
  6  7  1  0  0  0  0
  6 38  1  0  0  0  0
  7  8  1  0  0  0  0
  7 49  1  0  0  0  0
  7 50  1  0  0  0  0
  8  9  1  0  0  0  0
  8 51  1  0  0  0  0
  8 52  1  0  0  0  0
  9 10  2  0  0  0  0
  9 53  1  0  0  0  0
 10 11  1  0  0  0  0
 10 54  1  0  0  0  0
 11 12  1  0  0  0  0
 11 37  2  0  0  0  0
 12 13  2  0  0  0  0
 12 55  1  0  0  0  0
 13 14  1  0  0  0  0
 13 56  1  0  0  0  0
 14 15  1  0  0  0  0
 14 36  2  0  0  0  0
 15 16  1  0  0  0  0
 15 31  2  0  0  0  0
 16 17  1  0  0  0  0
 16 57  1  0  0  0  0
 17 18  1  0  0  0  0
 17 30  2  0  0  0  0
 18 19  2  0  0  0  0
 18 58  1  0  0  0  0
 19 20  1  0  0  0  0
 19 59  1  0  0  0  0
 20 21  1  0  0  0  0
 20 28  2  0  0  0  0
 21 22  1  0  0  0  0
 22 23  2  0  0  0  0
 22 26  1  0  0  0  0
 23 24  1  0  0  0  0
 24 25  2  0  0  0  0
 24 60  1  0  0  0  0
 25 26  1  0  0  0  0
 25 61  1  0  0  0  0
 26 27  1  0  0  0  0
 27 62  1  0  0  0  0
 27 63  1  0  0  0  0
 27 64  1  0  0  0  0
 28 29  1  0  0  0  0
 28 30  1  0  0  0  0
 30 65  1  0  0  0  0
 31 32  1  0  0  0  0
 31 34  1  0  0  0  0
 32 33  3  0  0  0  0
 34 35  2  0  0  0  0
 34 66  1  0  0  0  0
 35 36  1  0  0  0  0
 36 37  1  0  0  0  0
 37 67  1  0  0  0  0
 38 39  1  0  0  0  0
 38 68  1  0  0  0  0
 38 69  1  0  0  0  0
 39 70  1  0  0  0  0
 39 71  1  0  0  0  0
M  END
$$$$
