CHEMBL3686061
 OpenBabel04072215373D

 62 65  0  0  0  0  0  0  0  0999 V2000
    7.6521   -1.1790   -0.7789 C   0  0  0  0  0  0  0  0  0  0  0  0
    6.5728   -1.5955    0.2064 C   0  0  0  0  0  0  0  0  0  0  0  0
    6.2267   -0.4538    1.0038 O   0  0  0  0  0  0  0  0  0  0  0  0
    7.0110   -0.2329    2.0989 C   0  0  0  0  0  0  0  0  0  0  0  0
    7.7582   -1.0731    2.5888 O   0  0  0  0  0  0  0  0  0  0  0  0
    6.9418    1.2303    2.5434 C   0  0  0  0  0  0  0  0  0  0  0  0
    5.4904    1.5772    2.9260 C   0  0  0  0  0  0  0  0  0  0  0  0
    7.8237    1.4315    3.7907 C   0  0  0  0  0  0  0  0  0  0  0  0
    7.4653    2.0616    1.4469 N   0  0  0  0  0  0  0  0  0  0  0  0
    8.6944    1.9391    0.8440 C   0  0  0  0  0  0  0  0  0  0  0  0
    8.7415    2.8701   -0.1730 C   0  0  0  0  0  0  0  0  0  0  0  0
    9.8062    3.0535   -1.1269 C   0  0  0  0  0  0  0  0  0  0  0  0
   10.8830    2.0513   -1.2058 C   0  0  0  0  0  0  0  0  0  0  0  0
   11.7638    2.0721   -2.2158 C   0  0  0  0  0  0  0  0  0  0  0  0
   11.8105    3.1844   -3.0464 N   0  0  0  0  0  0  0  0  0  0  0  0
   12.8038    3.6025   -3.9181 C   0  0  0  0  0  0  0  0  0  0  0  0
   14.1328    3.0005   -4.1115 C   0  0  0  0  0  0  0  0  0  0  0  0
   14.7296    3.0802   -5.3734 C   0  0  0  0  0  0  0  0  0  0  0  0
   16.0312    2.6284   -5.5696 C   0  0  0  0  0  0  0  0  0  0  0  0
   16.7586    2.0878   -4.5093 C   0  0  0  0  0  0  0  0  0  0  0  0
   16.2046    1.9893   -3.2389 C   0  0  0  0  0  0  0  0  0  0  0  0
   16.8969    1.4603   -2.1306 N   0  0  0  0  0  0  0  0  0  0  0  0
   18.2229    1.0442   -2.1032 C   0  0  0  0  0  0  0  0  0  0  0  0
   19.0146    1.0459   -3.0375 O   0  0  0  0  0  0  0  0  0  0  0  0
   18.5867    0.5277   -0.8761 N   0  0  0  0  0  0  0  0  0  0  0  0
   19.9777    0.0867   -0.6985 C   0  0  0  0  0  0  0  0  0  0  0  0
   21.0224    1.2008   -0.4755 C   0  0  0  0  0  0  0  0  0  0  0  0
   20.4399    2.3980   -0.2521 F   0  0  0  0  0  0  0  0  0  0  0  0
   21.7697    0.9048    0.6167 F   0  0  0  0  0  0  0  0  0  0  0  0
   21.8679    1.3249   -1.5230 F   0  0  0  0  0  0  0  0  0  0  0  0
   14.8860    2.4550   -3.0460 C   0  0  0  0  0  0  0  0  0  0  0  0
   12.3066    4.7933   -4.4306 C   0  0  0  0  0  0  0  0  0  0  0  0
   11.1061    5.1410   -3.8701 N   0  0  0  0  0  0  0  0  0  0  0  0
   10.8568    4.1952   -2.9920 C   0  0  0  0  0  0  0  0  0  0  0  0
    9.8159    4.0734   -2.0233 C   0  0  0  0  0  0  0  0  0  0  0  0
    7.4945    3.5268   -0.0803 C   0  0  0  0  0  0  0  0  0  0  0  0
    6.7306    3.0565    0.9093 N   0  0  0  0  0  0  0  0  0  0  0  0
    7.9182   -2.0007   -1.4475 H   0  0  0  0  0  0  0  0  0  0  0  0
    8.5551   -0.8533   -0.2528 H   0  0  0  0  0  0  0  0  0  0  0  0
    7.3129   -0.3267   -1.3784 H   0  0  0  0  0  0  0  0  0  0  0  0
    6.8958   -2.4430    0.8209 H   0  0  0  0  0  0  0  0  0  0  0  0
    5.6736   -1.9055   -0.3349 H   0  0  0  0  0  0  0  0  0  0  0  0
    5.1365    0.9419    3.7462 H   0  0  0  0  0  0  0  0  0  0  0  0
    4.7984    1.4371    2.0877 H   0  0  0  0  0  0  0  0  0  0  0  0
    5.4054    2.6204    3.2533 H   0  0  0  0  0  0  0  0  0  0  0  0
    7.4551    0.8391    4.6363 H   0  0  0  0  0  0  0  0  0  0  0  0
    7.8450    2.4839    4.0949 H   0  0  0  0  0  0  0  0  0  0  0  0
    8.8603    1.1206    3.6128 H   0  0  0  0  0  0  0  0  0  0  0  0
    9.3948    1.1826    1.1706 H   0  0  0  0  0  0  0  0  0  0  0  0
   10.9766    1.2940   -0.4372 H   0  0  0  0  0  0  0  0  0  0  0  0
   12.5007    1.2955   -2.3635 H   0  0  0  0  0  0  0  0  0  0  0  0
   14.1982    3.5156   -6.2163 H   0  0  0  0  0  0  0  0  0  0  0  0
   16.4961    2.7113   -6.5485 H   0  0  0  0  0  0  0  0  0  0  0  0
   17.7655    1.7554   -4.7233 H   0  0  0  0  0  0  0  0  0  0  0  0
   16.3985    1.3841   -1.2545 H   0  0  0  0  0  0  0  0  0  0  0  0
   18.1399    0.9367   -0.0684 H   0  0  0  0  0  0  0  0  0  0  0  0
   20.2738   -0.5076   -1.5724 H   0  0  0  0  0  0  0  0  0  0  0  0
   19.9805   -0.5875    0.1670 H   0  0  0  0  0  0  0  0  0  0  0  0
   14.4610    2.4270   -2.0468 H   0  0  0  0  0  0  0  0  0  0  0  0
   12.7996    5.4574   -5.1310 H   0  0  0  0  0  0  0  0  0  0  0  0
    9.0441    4.8348   -2.0484 H   0  0  0  0  0  0  0  0  0  0  0  0
    7.0962    4.3194   -0.7003 H   0  0  0  0  0  0  0  0  0  0  0  0
  1  2  1  0  0  0  0
  1 38  1  0  0  0  0
  1 39  1  0  0  0  0
  1 40  1  0  0  0  0
  2  3  1  0  0  0  0
  2 41  1  0  0  0  0
  2 42  1  0  0  0  0
  3  4  1  0  0  0  0
  4  5  2  0  0  0  0
  4  6  1  0  0  0  0
  6  7  1  0  0  0  0
  6  8  1  0  0  0  0
  6  9  1  0  0  0  0
  7 43  1  0  0  0  0
  7 44  1  0  0  0  0
  7 45  1  0  0  0  0
  8 46  1  0  0  0  0
  8 47  1  0  0  0  0
  8 48  1  0  0  0  0
  9 10  1  0  0  0  0
  9 37  1  0  0  0  0
 10 11  2  0  0  0  0
 10 49  1  0  0  0  0
 11 12  1  0  0  0  0
 11 36  1  0  0  0  0
 12 13  1  0  0  0  0
 12 35  2  0  0  0  0
 13 14  2  0  0  0  0
 13 50  1  0  0  0  0
 14 15  1  0  0  0  0
 14 51  1  0  0  0  0
 15 16  1  0  0  0  0
 15 34  1  0  0  0  0
 16 17  1  0  0  0  0
 16 32  2  0  0  0  0
 17 18  1  0  0  0  0
 17 31  2  0  0  0  0
 18 19  2  0  0  0  0
 18 52  1  0  0  0  0
 19 20  1  0  0  0  0
 19 53  1  0  0  0  0
 20 21  2  0  0  0  0
 20 54  1  0  0  0  0
 21 22  1  0  0  0  0
 21 31  1  0  0  0  0
 22 23  1  0  0  0  0
 22 55  1  0  0  0  0
 23 24  2  0  0  0  0
 23 25  1  0  0  0  0
 25 26  1  0  0  0  0
 25 56  1  0  0  0  0
 26 27  1  0  0  0  0
 26 57  1  0  0  0  0
 26 58  1  0  0  0  0
 27 28  1  0  0  0  0
 27 29  1  0  0  0  0
 27 30  1  0  0  0  0
 31 59  1  0  0  0  0
 32 33  1  0  0  0  0
 32 60  1  0  0  0  0
 33 34  2  0  0  0  0
 34 35  1  0  0  0  0
 35 61  1  0  0  0  0
 36 37  2  0  0  0  0
 36 62  1  0  0  0  0
M  END
$$$$
