CHEMBL269884
 OpenBabel04072215363D

 46 49  0  0  0  0  0  0  0  0999 V2000
    2.0538    0.4952   -0.5900 C   0  0  0  0  0  0  0  0  0  0  0  0
    2.2242    0.0184    0.7401 O   0  0  0  0  0  0  0  0  0  0  0  0
    3.0607   -1.0748    0.8718 C   0  0  0  0  0  0  0  0  0  0  0  0
    2.7941   -1.9113    1.9533 C   0  0  0  0  0  0  0  0  0  0  0  0
    3.5970   -3.0203    2.2193 C   0  0  0  0  0  0  0  0  0  0  0  0
    4.7347   -3.3388    1.4383 C   0  0  0  0  0  0  0  0  0  0  0  0
    5.5543   -4.5193    1.7709 C   0  0  0  0  0  0  0  0  0  0  0  0
    6.0086   -5.3728    0.7721 C   0  0  0  0  0  0  0  0  0  0  0  0
    6.8753   -6.4270    1.0539 C   0  0  0  0  0  0  0  0  0  0  0  0
    7.2453   -6.7528    2.3596 C   0  0  0  0  0  0  0  0  0  0  0  0
    8.1099   -7.8414    2.6707 N   0  0  0  0  0  0  0  0  0  0  0  0
    8.6991   -8.6623    1.7292 C   0  0  0  0  0  0  0  0  0  0  0  0
    8.5453   -8.5312    0.5169 O   0  0  0  0  0  0  0  0  0  0  0  0
    9.4704   -9.6757    2.2642 N   0  0  0  0  0  0  0  0  0  0  0  0
   10.1857  -10.5961    1.4473 C   0  0  0  0  0  0  0  0  0  0  0  0
   10.5885  -10.2800    0.1393 C   0  0  0  0  0  0  0  0  0  0  0  0
   11.1607  -11.2370   -0.6969 C   0  0  0  0  0  0  0  0  0  0  0  0
   11.3866  -12.5196   -0.2166 C   0  0  0  0  0  0  0  0  0  0  0  0
   11.0621  -12.8223    1.1056 C   0  0  0  0  0  0  0  0  0  0  0  0
   11.3695  -14.4083    1.7027 Cl  0  0  0  0  0  0  0  0  0  0  0  0
   10.4729  -11.8689    1.9438 C   0  0  0  0  0  0  0  0  0  0  0  0
    6.7197   -5.9695    3.3897 C   0  0  0  0  0  0  0  0  0  0  0  0
    5.8970   -4.8620    3.0950 C   0  0  0  0  0  0  0  0  0  0  0  0
    5.0290   -2.4788    0.3320 C   0  0  0  0  0  0  0  0  0  0  0  0
    6.0019   -2.3414   -0.7199 C   0  0  0  0  0  0  0  0  0  0  0  0
    7.0650   -3.1332   -0.9526 N   0  0  0  0  0  0  0  0  0  0  0  0
    5.7398   -1.2953   -1.5043 N   0  0  0  0  0  0  0  0  0  0  0  0
    4.6221   -0.7007   -0.9812 O   0  0  0  0  0  0  0  0  0  0  0  0
    4.1812   -1.3952    0.0979 C   0  0  0  0  0  0  0  0  0  0  0  0
    1.2666    1.2557   -0.5678 H   0  0  0  0  0  0  0  0  0  0  0  0
    1.7264   -0.3076   -1.2592 H   0  0  0  0  0  0  0  0  0  0  0  0
    2.9565    0.9851   -0.9638 H   0  0  0  0  0  0  0  0  0  0  0  0
    1.9386   -1.7018    2.5914 H   0  0  0  0  0  0  0  0  0  0  0  0
    3.3177   -3.6612    3.0548 H   0  0  0  0  0  0  0  0  0  0  0  0
    5.7242   -5.2214   -0.2679 H   0  0  0  0  0  0  0  0  0  0  0  0
    7.2355   -6.9642    0.1858 H   0  0  0  0  0  0  0  0  0  0  0  0
    8.3463   -7.9794    3.6415 H   0  0  0  0  0  0  0  0  0  0  0  0
    9.2443   -9.9723    3.1986 H   0  0  0  0  0  0  0  0  0  0  0  0
   10.4498   -9.2839   -0.2732 H   0  0  0  0  0  0  0  0  0  0  0  0
   11.4075  -10.9749   -1.7228 H   0  0  0  0  0  0  0  0  0  0  0  0
   11.8152  -13.2705   -0.8744 H   0  0  0  0  0  0  0  0  0  0  0  0
   10.2026  -12.1456    2.9575 H   0  0  0  0  0  0  0  0  0  0  0  0
    6.9392   -6.1918    4.4307 H   0  0  0  0  0  0  0  0  0  0  0  0
    5.5279   -4.2624    3.9258 H   0  0  0  0  0  0  0  0  0  0  0  0
    7.4933   -3.6818   -0.2166 H   0  0  0  0  0  0  0  0  0  0  0  0
    7.7187   -2.8375   -1.6702 H   0  0  0  0  0  0  0  0  0  0  0  0
  1  2  1  0  0  0  0
  1 30  1  0  0  0  0
  1 31  1  0  0  0  0
  1 32  1  0  0  0  0
  2  3  1  0  0  0  0
  3  4  1  0  0  0  0
  3 29  2  0  0  0  0
  4  5  2  0  0  0  0
  4 33  1  0  0  0  0
  5  6  1  0  0  0  0
  5 34  1  0  0  0  0
  6  7  1  0  0  0  0
  6 24  2  0  0  0  0
  7  8  1  0  0  0  0
  7 23  2  0  0  0  0
  8  9  2  0  0  0  0
  8 35  1  0  0  0  0
  9 10  1  0  0  0  0
  9 36  1  0  0  0  0
 10 11  1  0  0  0  0
 10 22  2  0  0  0  0
 11 12  1  0  0  0  0
 11 37  1  0  0  0  0
 12 13  2  0  0  0  0
 12 14  1  0  0  0  0
 14 15  1  0  0  0  0
 14 38  1  0  0  0  0
 15 16  1  0  0  0  0
 15 21  2  0  0  0  0
 16 17  2  0  0  0  0
 16 39  1  0  0  0  0
 17 18  1  0  0  0  0
 17 40  1  0  0  0  0
 18 19  2  0  0  0  0
 18 41  1  0  0  0  0
 19 20  1  0  0  0  0
 19 21  1  0  0  0  0
 21 42  1  0  0  0  0
 22 23  1  0  0  0  0
 22 43  1  0  0  0  0
 23 44  1  0  0  0  0
 24 25  1  0  0  0  0
 24 29  1  0  0  0  0
 25 26  1  0  0  0  0
 25 27  2  0  0  0  0
 26 45  1  0  0  0  0
 26 46  1  0  0  0  0
 27 28  1  0  0  0  0
 28 29  1  0  0  0  0
M  END
$$$$
