CHEMBL207600
 OpenBabel04072215363D

 39 43  0  0  0  0  0  0  0  0999 V2000
    0.8315   -0.1158    0.0101 C   0  0  0  0  0  0  0  0  0  0  0  0
    2.2690    0.0328   -0.0022 N   0  0  0  0  0  0  0  0  0  0  0  0
    3.1601   -1.0006    0.0014 C   0  0  0  0  0  0  0  0  0  0  0  0
    4.4273   -0.4920   -0.1662 C   0  0  0  0  0  0  0  0  0  0  0  0
    5.6223   -1.2781   -0.3114 C   0  0  0  0  0  0  0  0  0  0  0  0
    5.7816   -2.5069   -0.8424 C   0  0  0  0  0  0  0  0  0  0  0  0
    4.7561   -3.4130   -1.4409 C   0  0  0  0  0  0  0  0  0  0  0  0
    3.6036   -3.2060   -1.7721 O   0  0  0  0  0  0  0  0  0  0  0  0
    5.4369   -4.6077   -1.6007 N   0  0  0  0  0  0  0  0  0  0  0  0
    6.7805   -4.5530   -1.3546 N   0  0  0  0  0  0  0  0  0  0  0  0
    7.0330   -3.3302   -0.9423 C   0  0  0  0  0  0  0  0  0  0  0  0
    8.4096   -2.8653   -0.7073 C   0  0  0  0  0  0  0  0  0  0  0  0
    9.4707   -3.7482   -0.8937 C   0  0  0  0  0  0  0  0  0  0  0  0
   10.7714   -3.3660   -0.7980 N   0  0  0  0  0  0  0  0  0  0  0  0
   10.9678   -2.0601   -0.5159 C   0  0  0  0  0  0  0  0  0  0  0  0
    9.9151   -1.1809   -0.3246 C   0  0  0  0  0  0  0  0  0  0  0  0
    8.6179   -1.5596   -0.4166 N   0  0  0  0  0  0  0  0  0  0  0  0
    4.3100    0.9457   -0.0923 C   0  0  0  0  0  0  0  0  0  0  0  0
    5.2236    2.0344   -0.0968 C   0  0  0  0  0  0  0  0  0  0  0  0
    4.6941    3.3196   -0.0456 C   0  0  0  0  0  0  0  0  0  0  0  0
    3.3448    3.5581   -0.0017 C   0  0  0  0  0  0  0  0  0  0  0  0
    2.4153    2.5434    0.0119 C   0  0  0  0  0  0  0  0  0  0  0  0
    2.9327    1.2369   -0.0215 C   0  0  0  0  0  0  0  0  0  0  0  0
    3.0380    4.8839    0.0289 O   0  0  0  0  0  0  0  0  0  0  0  0
    4.3549    5.4627   -0.0035 C   0  0  0  0  0  0  0  0  0  0  0  0
    5.4133    4.4793   -0.0378 O   0  0  0  0  0  0  0  0  0  0  0  0
    0.5710   -1.1763    0.0200 H   0  0  0  0  0  0  0  0  0  0  0  0
    0.4322    0.3548   -0.8925 H   0  0  0  0  0  0  0  0  0  0  0  0
    0.4423    0.3731    0.9064 H   0  0  0  0  0  0  0  0  0  0  0  0
    2.7995   -2.0183    0.0749 H   0  0  0  0  0  0  0  0  0  0  0  0
    6.5025   -0.7829    0.0877 H   0  0  0  0  0  0  0  0  0  0  0  0
    5.0225   -5.4234   -2.0357 H   0  0  0  0  0  0  0  0  0  0  0  0
    9.3168   -4.7918   -1.1505 H   0  0  0  0  0  0  0  0  0  0  0  0
   12.0000   -1.7342   -0.4538 H   0  0  0  0  0  0  0  0  0  0  0  0
   10.0885   -0.1347   -0.0993 H   0  0  0  0  0  0  0  0  0  0  0  0
    6.2954    1.8794   -0.1353 H   0  0  0  0  0  0  0  0  0  0  0  0
    1.3529    2.7479    0.0494 H   0  0  0  0  0  0  0  0  0  0  0  0
    4.4788    6.0909    0.8866 H   0  0  0  0  0  0  0  0  0  0  0  0
    4.4331    6.0997   -0.8926 H   0  0  0  0  0  0  0  0  0  0  0  0
  1  2  1  0  0  0  0
  1 27  1  0  0  0  0
  1 28  1  0  0  0  0
  1 29  1  0  0  0  0
  2  3  1  0  0  0  0
  2 23  1  0  0  0  0
  3  4  2  0  0  0  0
  3 30  1  0  0  0  0
  4  5  1  0  0  0  0
  4 18  1  0  0  0  0
  5  6  2  0  0  0  0
  5 31  1  0  0  0  0
  6  7  1  0  0  0  0
  6 11  1  0  0  0  0
  7  8  2  0  0  0  0
  7  9  1  0  0  0  0
  9 10  1  0  0  0  0
  9 32  1  0  0  0  0
 10 11  2  0  0  0  0
 11 12  1  0  0  0  0
 12 13  1  0  0  0  0
 12 17  2  0  0  0  0
 13 14  2  0  0  0  0
 13 33  1  0  0  0  0
 14 15  1  0  0  0  0
 15 16  2  0  0  0  0
 15 34  1  0  0  0  0
 16 17  1  0  0  0  0
 16 35  1  0  0  0  0
 18 19  1  0  0  0  0
 18 23  2  0  0  0  0
 19 20  2  0  0  0  0
 19 36  1  0  0  0  0
 20 21  1  0  0  0  0
 20 26  1  0  0  0  0
 21 22  2  0  0  0  0
 21 24  1  0  0  0  0
 22 23  1  0  0  0  0
 22 37  1  0  0  0  0
 24 25  1  0  0  0  0
 25 26  1  0  0  0  0
 25 38  1  0  0  0  0
 25 39  1  0  0  0  0
M  END
$$$$
