CHEMBL3099481
 OpenBabel04072215363D

 79 82  0  0  0  0  0  0  0  0999 V2000
    2.3339   -0.8603   -1.5403 C   0  0  0  0  0  0  0  0  0  0  0  0
    3.3460   -0.2949   -0.7176 O   0  0  0  0  0  0  0  0  0  0  0  0
    3.6020   -0.8841    0.4931 C   0  0  0  0  0  0  0  0  0  0  0  0
    3.2612   -2.2104    0.7965 C   0  0  0  0  0  0  0  0  0  0  0  0
    3.7418   -2.8914    1.9461 C   0  0  0  0  0  0  0  0  0  0  0  0
    3.4736   -4.3559    2.1265 C   0  0  0  0  0  0  0  0  0  0  0  0
    3.3883   -5.1337    0.9487 C   0  0  0  0  0  0  0  0  0  0  0  0
    3.0859   -6.4903    0.9246 C   0  0  0  0  0  0  0  0  0  0  0  0
    2.9224   -7.2063   -0.2889 N   0  0  0  0  0  0  0  0  0  0  0  0
    3.0329   -6.6837   -1.5766 C   0  0  0  0  0  0  0  0  0  0  0  0
    3.3068   -5.5257   -1.8692 O   0  0  0  0  0  0  0  0  0  0  0  0
    2.7420   -7.6508   -2.5401 N   0  0  0  0  0  0  0  0  0  0  0  0
    2.7587   -7.2348   -3.9010 C   0  0  0  0  0  0  0  0  0  0  0  0
    1.5562   -6.8262   -4.4785 C   0  0  0  0  0  0  0  0  0  0  0  0
    1.5139   -6.4257   -5.8149 C   0  0  0  0  0  0  0  0  0  0  0  0
    2.6681   -6.4442   -6.6026 C   0  0  0  0  0  0  0  0  0  0  0  0
    2.7107   -6.1083   -7.9388 O   0  0  0  0  0  0  0  0  0  0  0  0
    1.6698   -5.2124   -8.3468 C   0  0  0  0  0  0  0  0  0  0  0  0
    1.7591   -4.8370   -9.8410 C   0  0  0  0  0  0  0  0  0  0  0  0
    0.6366   -3.9577  -10.2331 N   0  0  0  0  0  0  0  0  0  0  0  0
    0.5806   -3.7050  -11.6789 C   0  0  0  0  0  0  0  0  0  0  0  0
    1.4074   -2.4540  -11.8981 C   0  0  0  0  0  0  0  0  0  0  0  0
    1.1388   -1.6280  -10.6569 C   0  0  0  0  0  0  0  0  0  0  0  0
    0.6926   -2.6283   -9.6009 C   0  0  0  0  0  0  0  0  0  0  0  0
    3.8714   -6.8634   -6.0248 C   0  0  0  0  0  0  0  0  0  0  0  0
    3.9370   -7.2480   -4.6673 C   0  0  0  0  0  0  0  0  0  0  0  0
    5.2410   -7.7251   -4.0936 C   0  0  0  0  0  0  0  0  0  0  0  0
    2.9219   -7.1373    2.1458 C   0  0  0  0  0  0  0  0  0  0  0  0
    3.0496   -6.4272    3.3571 C   0  0  0  0  0  0  0  0  0  0  0  0
    2.8024   -7.0665    4.5508 O   0  0  0  0  0  0  0  0  0  0  0  0
    3.5045   -8.2904    4.7291 C   0  0  0  0  0  0  0  0  0  0  0  0
    3.3129   -5.0351    3.3573 C   0  0  0  0  0  0  0  0  0  0  0  0
    3.3603   -4.2588    4.4939 O   0  0  0  0  0  0  0  0  0  0  0  0
    3.8581   -4.8552    5.6839 C   0  0  0  0  0  0  0  0  0  0  0  0
    4.5487   -2.1463    2.8150 C   0  0  0  0  0  0  0  0  0  0  0  0
    4.8227   -0.7939    2.5779 C   0  0  0  0  0  0  0  0  0  0  0  0
    4.3398   -0.1486    1.4292 C   0  0  0  0  0  0  0  0  0  0  0  0
    4.6026    1.3185    1.2808 C   0  0  0  0  0  0  0  0  0  0  0  0
    3.5603    2.1898    0.5981 C   0  0  0  0  0  0  0  0  0  0  0  0
    5.6893    1.8198    1.8007 N   0  0  0  0  0  0  0  0  0  0  0  0
    5.7522    3.2061    1.6144 O   0  0  0  0  0  0  0  0  0  0  0  0
    2.2429   -0.2286   -2.4300 H   0  0  0  0  0  0  0  0  0  0  0  0
    1.3704   -0.8500   -1.0217 H   0  0  0  0  0  0  0  0  0  0  0  0
    2.5956   -1.8663   -1.8819 H   0  0  0  0  0  0  0  0  0  0  0  0
    2.6355   -2.7581    0.0972 H   0  0  0  0  0  0  0  0  0  0  0  0
    3.5820   -4.6260    0.0123 H   0  0  0  0  0  0  0  0  0  0  0  0
    2.7683   -8.2015   -0.2197 H   0  0  0  0  0  0  0  0  0  0  0  0
    1.8740   -8.1008   -2.2830 H   0  0  0  0  0  0  0  0  0  0  0  0
    0.6459   -6.7741   -3.8883 H   0  0  0  0  0  0  0  0  0  0  0  0
    0.5542   -6.1094   -6.2063 H   0  0  0  0  0  0  0  0  0  0  0  0
    1.7508   -4.3136   -7.7278 H   0  0  0  0  0  0  0  0  0  0  0  0
    0.6899   -5.6794   -8.2010 H   0  0  0  0  0  0  0  0  0  0  0  0
    1.6984   -5.7733  -10.4152 H   0  0  0  0  0  0  0  0  0  0  0  0
    2.7363   -4.3997  -10.0775 H   0  0  0  0  0  0  0  0  0  0  0  0
   -0.4635   -3.5047  -11.9537 H   0  0  0  0  0  0  0  0  0  0  0  0
    0.9159   -4.5469  -12.2933 H   0  0  0  0  0  0  0  0  0  0  0  0
    1.1268   -1.9189  -12.8104 H   0  0  0  0  0  0  0  0  0  0  0  0
    2.4726   -2.7028  -11.9611 H   0  0  0  0  0  0  0  0  0  0  0  0
    0.3415   -0.8992  -10.8418 H   0  0  0  0  0  0  0  0  0  0  0  0
    2.0340   -1.0796  -10.3464 H   0  0  0  0  0  0  0  0  0  0  0  0
   -0.3118   -2.3700   -9.2454 H   0  0  0  0  0  0  0  0  0  0  0  0
    1.3523   -2.5683   -8.7311 H   0  0  0  0  0  0  0  0  0  0  0  0
    4.7699   -6.8805   -6.6390 H   0  0  0  0  0  0  0  0  0  0  0  0
    6.0639   -7.5997   -4.8058 H   0  0  0  0  0  0  0  0  0  0  0  0
    5.1717   -8.7904   -3.8501 H   0  0  0  0  0  0  0  0  0  0  0  0
    5.5023   -7.1623   -3.1924 H   0  0  0  0  0  0  0  0  0  0  0  0
    2.6563   -8.1893    2.1726 H   0  0  0  0  0  0  0  0  0  0  0  0
    3.6904   -8.4289    5.7977 H   0  0  0  0  0  0  0  0  0  0  0  0
    4.4765   -8.3053    4.2144 H   0  0  0  0  0  0  0  0  0  0  0  0
    2.8868   -9.1323    4.3884 H   0  0  0  0  0  0  0  0  0  0  0  0
    4.2395   -4.0570    6.3314 H   0  0  0  0  0  0  0  0  0  0  0  0
    4.6955   -5.5378    5.4937 H   0  0  0  0  0  0  0  0  0  0  0  0
    3.0547   -5.3523    6.2368 H   0  0  0  0  0  0  0  0  0  0  0  0
    4.9875   -2.6100    3.6980 H   0  0  0  0  0  0  0  0  0  0  0  0
    5.4370   -0.2467    3.2898 H   0  0  0  0  0  0  0  0  0  0  0  0
    2.6496    1.6518    0.3330 H   0  0  0  0  0  0  0  0  0  0  0  0
    3.9918    2.6313   -0.3052 H   0  0  0  0  0  0  0  0  0  0  0  0
    3.2546    2.9886    1.2805 H   0  0  0  0  0  0  0  0  0  0  0  0
    6.5852    3.4405    2.0609 H   0  0  0  0  0  0  0  0  0  0  0  0
  1  2  1  0  0  0  0
  1 42  1  0  0  0  0
  1 43  1  0  0  0  0
  1 44  1  0  0  0  0
  2  3  1  0  0  0  0
  3  4  1  0  0  0  0
  3 37  2  0  0  0  0
  4  5  2  0  0  0  0
  4 45  1  0  0  0  0
  5  6  1  0  0  0  0
  5 35  1  0  0  0  0
  6  7  1  0  0  0  0
  6 32  2  0  0  0  0
  7  8  2  0  0  0  0
  7 46  1  0  0  0  0
  8  9  1  0  0  0  0
  8 28  1  0  0  0  0
  9 10  1  0  0  0  0
  9 47  1  0  0  0  0
 10 11  2  0  0  0  0
 10 12  1  0  0  0  0
 12 13  1  0  0  0  0
 12 48  1  0  0  0  0
 13 14  1  0  0  0  0
 13 26  2  0  0  0  0
 14 15  2  0  0  0  0
 14 49  1  0  0  0  0
 15 16  1  0  0  0  0
 15 50  1  0  0  0  0
 16 17  1  0  0  0  0
 16 25  2  0  0  0  0
 17 18  1  0  0  0  0
 18 19  1  0  0  0  0
 18 51  1  0  0  0  0
 18 52  1  0  0  0  0
 19 20  1  0  0  0  0
 19 53  1  0  0  0  0
 19 54  1  0  0  0  0
 20 21  1  0  0  0  0
 20 24  1  0  0  0  0
 21 22  1  0  0  0  0
 21 55  1  0  0  0  0
 21 56  1  0  0  0  0
 22 23  1  0  0  0  0
 22 57  1  0  0  0  0
 22 58  1  0  0  0  0
 23 24  1  0  0  0  0
 23 59  1  0  0  0  0
 23 60  1  0  0  0  0
 24 61  1  0  0  0  0
 24 62  1  0  0  0  0
 25 26  1  0  0  0  0
 25 63  1  0  0  0  0
 26 27  1  0  0  0  0
 27 64  1  0  0  0  0
 27 65  1  0  0  0  0
 27 66  1  0  0  0  0
 28 29  2  0  0  0  0
 28 67  1  0  0  0  0
 29 30  1  0  0  0  0
 29 32  1  0  0  0  0
 30 31  1  0  0  0  0
 31 68  1  0  0  0  0
 31 69  1  0  0  0  0
 31 70  1  0  0  0  0
 32 33  1  0  0  0  0
 33 34  1  0  0  0  0
 34 71  1  0  0  0  0
 34 72  1  0  0  0  0
 34 73  1  0  0  0  0
 35 36  2  0  0  0  0
 35 74  1  0  0  0  0
 36 37  1  0  0  0  0
 36 75  1  0  0  0  0
 37 38  1  0  0  0  0
 38 39  1  0  0  0  0
 38 40  2  0  0  0  0
 39 76  1  0  0  0  0
 39 77  1  0  0  0  0
 39 78  1  0  0  0  0
 40 41  1  0  0  0  0
 41 79  1  0  0  0  0
M  END
$$$$
