CHEMBL3969955
 OpenBabel04072215373D

 54 57  0  0  0  0  0  0  0  0999 V2000
   -2.6347   -0.2512    0.0821 C   0  0  0  0  0  0  0  0  0  0  0  0
   -1.1383   -0.0825    0.0363 C   0  0  0  0  0  0  0  0  0  0  0  0
   -0.3498   -1.2587   -0.0055 C   0  0  0  0  0  0  0  0  0  0  0  0
    1.0351   -1.1518   -0.0836 C   0  0  0  0  0  0  0  0  0  0  0  0
    1.7965   -2.3173   -0.0706 O   0  0  0  0  0  0  0  0  0  0  0  0
    3.0953   -2.2227    0.4020 C   0  0  0  0  0  0  0  0  0  0  0  0
    3.4361   -1.4387    1.5012 C   0  0  0  0  0  0  0  0  0  0  0  0
    4.7588   -1.3913    1.8756 C   0  0  0  0  0  0  0  0  0  0  0  0
    5.7241   -2.1071    1.2715 N   0  0  0  0  0  0  0  0  0  0  0  0
    5.3978   -2.8949    0.2364 C   0  0  0  0  0  0  0  0  0  0  0  0
    6.4120   -3.6457   -0.3934 N   0  0  0  0  0  0  0  0  0  0  0  0
    7.7465   -3.5852   -0.0318 C   0  0  0  0  0  0  0  0  0  0  0  0
    8.2465   -2.9029    0.8530 O   0  0  0  0  0  0  0  0  0  0  0  0
    8.6972   -4.4362   -0.8092 C   0  0  0  0  0  0  0  0  0  0  0  0
    8.8964   -4.1696   -2.2834 C   0  0  0  0  0  0  0  0  0  0  0  0
    8.3605   -5.4952   -1.8233 C   0  0  0  0  0  0  0  0  0  0  0  0
    4.0861   -2.9877   -0.2289 C   0  0  0  0  0  0  0  0  0  0  0  0
    1.6560    0.0299   -0.1768 N   0  0  0  0  0  0  0  0  0  0  0  0
    0.8925    1.1483   -0.0983 C   0  0  0  0  0  0  0  0  0  0  0  0
   -0.4981    1.1750    0.0291 C   0  0  0  0  0  0  0  0  0  0  0  0
   -1.2219    2.4073    0.1447 N   0  0  0  0  0  0  0  0  0  0  0  0
   -0.6306    3.6434    0.3857 C   0  0  0  0  0  0  0  0  0  0  0  0
    0.5742    3.8287    0.5228 O   0  0  0  0  0  0  0  0  0  0  0  0
   -1.5488    4.6749    0.5276 N   0  0  0  0  0  0  0  0  0  0  0  0
   -1.1035    5.9940    0.8226 C   0  0  0  0  0  0  0  0  0  0  0  0
   -1.7167    6.6880    1.8612 C   0  0  0  0  0  0  0  0  0  0  0  0
   -1.2474    7.9524    2.2302 C   0  0  0  0  0  0  0  0  0  0  0  0
   -0.1988    8.5669    1.5324 C   0  0  0  0  0  0  0  0  0  0  0  0
    0.2749   10.1296    2.0913 Cl  0  0  0  0  0  0  0  0  0  0  0  0
    0.4035    7.9151    0.4527 C   0  0  0  0  0  0  0  0  0  0  0  0
    1.5101    8.5087   -0.3859 C   0  0  0  0  0  0  0  0  0  0  0  0
    1.8645    9.7891   -0.1018 F   0  0  0  0  0  0  0  0  0  0  0  0
    2.6636    7.7875   -0.3071 F   0  0  0  0  0  0  0  0  0  0  0  0
    1.1806    8.5231   -1.7120 F   0  0  0  0  0  0  0  0  0  0  0  0
   -0.0540    6.6126    0.1227 C   0  0  0  0  0  0  0  0  0  0  0  0
   -2.9108   -1.2968    0.2887 H   0  0  0  0  0  0  0  0  0  0  0  0
   -3.0742    0.0139   -0.8845 H   0  0  0  0  0  0  0  0  0  0  0  0
   -3.0874    0.3525    0.8729 H   0  0  0  0  0  0  0  0  0  0  0  0
   -0.8002   -2.2443    0.0358 H   0  0  0  0  0  0  0  0  0  0  0  0
    2.7088   -0.8387    2.0344 H   0  0  0  0  0  0  0  0  0  0  0  0
    5.0965   -0.7555    2.6879 H   0  0  0  0  0  0  0  0  0  0  0  0
    6.1458   -4.2299   -1.1669 H   0  0  0  0  0  0  0  0  0  0  0  0
    9.6057   -4.6257   -0.2376 H   0  0  0  0  0  0  0  0  0  0  0  0
    9.9203   -4.1129   -2.6379 H   0  0  0  0  0  0  0  0  0  0  0  0
    8.2207   -3.4859   -2.7836 H   0  0  0  0  0  0  0  0  0  0  0  0
    9.0287   -6.3501   -1.8819 H   0  0  0  0  0  0  0  0  0  0  0  0
    7.3322   -5.7428   -2.0437 H   0  0  0  0  0  0  0  0  0  0  0  0
    3.8247   -3.6193   -1.0687 H   0  0  0  0  0  0  0  0  0  0  0  0
    1.4949    2.0459   -0.1716 H   0  0  0  0  0  0  0  0  0  0  0  0
   -2.2289    2.3611    0.0948 H   0  0  0  0  0  0  0  0  0  0  0  0
   -2.4235    4.4019    0.9513 H   0  0  0  0  0  0  0  0  0  0  0  0
   -2.5138    6.2362    2.4440 H   0  0  0  0  0  0  0  0  0  0  0  0
   -1.6986    8.4557    3.0835 H   0  0  0  0  0  0  0  0  0  0  0  0
    0.4264    6.0837   -0.7027 H   0  0  0  0  0  0  0  0  0  0  0  0
  1  2  1  0  0  0  0
  1 36  1  0  0  0  0
  1 37  1  0  0  0  0
  1 38  1  0  0  0  0
  2  3  1  0  0  0  0
  2 20  2  0  0  0  0
  3  4  2  0  0  0  0
  3 39  1  0  0  0  0
  4  5  1  0  0  0  0
  4 18  1  0  0  0  0
  5  6  1  0  0  0  0
  6  7  1  0  0  0  0
  6 17  2  0  0  0  0
  7  8  2  0  0  0  0
  7 40  1  0  0  0  0
  8  9  1  0  0  0  0
  8 41  1  0  0  0  0
  9 10  2  0  0  0  0
 10 11  1  0  0  0  0
 10 17  1  0  0  0  0
 11 12  1  0  0  0  0
 11 42  1  0  0  0  0
 12 13  2  0  0  0  0
 12 14  1  0  0  0  0
 14 15  1  0  0  0  0
 14 16  1  0  0  0  0
 14 43  1  0  0  0  0
 15 16  1  0  0  0  0
 15 44  1  0  0  0  0
 15 45  1  0  0  0  0
 16 46  1  0  0  0  0
 16 47  1  0  0  0  0
 17 48  1  0  0  0  0
 18 19  2  0  0  0  0
 19 20  1  0  0  0  0
 19 49  1  0  0  0  0
 20 21  1  0  0  0  0
 21 22  1  0  0  0  0
 21 50  1  0  0  0  0
 22 23  2  0  0  0  0
 22 24  1  0  0  0  0
 24 25  1  0  0  0  0
 24 51  1  0  0  0  0
 25 26  1  0  0  0  0
 25 35  2  0  0  0  0
 26 27  2  0  0  0  0
 26 52  1  0  0  0  0
 27 28  1  0  0  0  0
 27 53  1  0  0  0  0
 28 29  1  0  0  0  0
 28 30  2  0  0  0  0
 30 31  1  0  0  0  0
 30 35  1  0  0  0  0
 31 32  1  0  0  0  0
 31 33  1  0  0  0  0
 31 34  1  0  0  0  0
 35 54  1  0  0  0  0
M  END
$$$$
