CHEMBL3589748
 OpenBabel04072215363D

 43 46  0  0  0  0  0  0  0  0999 V2000
    1.1920   -0.4710    0.1494 O   0  0  0  0  0  0  0  0  0  0  0  0
    2.3960   -0.4533   -0.0786 C   0  0  0  0  0  0  0  0  0  0  0  0
    3.0238    0.4475   -0.9358 N   0  0  0  0  0  0  0  0  0  0  0  0
    2.3418    1.5012   -1.5891 C   0  0  0  0  0  0  0  0  0  0  0  0
    1.0695    1.8594   -1.1864 C   0  0  0  0  0  0  0  0  0  0  0  0
    0.3523    2.7941   -1.8910 C   0  0  0  0  0  0  0  0  0  0  0  0
    0.9279    3.5845   -2.8838 C   0  0  0  0  0  0  0  0  0  0  0  0
    0.1687    4.6456   -3.4368 N   0  0  0  0  0  0  0  0  0  0  0  0
   -0.4955    5.3484   -2.5542 C   0  0  0  0  0  0  0  0  0  0  0  0
    0.0425    5.8441   -1.1828 C   0  0  0  0  0  0  0  0  0  0  0  0
    1.1501    6.2830   -0.9665 O   0  0  0  0  0  0  0  0  0  0  0  0
   -0.9696    5.6018   -0.2741 N   0  0  0  0  0  0  0  0  0  0  0  0
   -2.0396    4.9722   -0.9029 C   0  0  0  0  0  0  0  0  0  0  0  0
   -2.9169    4.0878   -0.2959 C   0  0  0  0  0  0  0  0  0  0  0  0
   -3.6944    3.2792   -1.1364 C   0  0  0  0  0  0  0  0  0  0  0  0
   -3.6339    3.4253   -2.5338 C   0  0  0  0  0  0  0  0  0  0  0  0
   -4.3611    2.6048   -3.3032 F   0  0  0  0  0  0  0  0  0  0  0  0
   -2.7465    4.3096   -3.1395 C   0  0  0  0  0  0  0  0  0  0  0  0
   -1.9251    5.0396   -2.2996 C   0  0  0  0  0  0  0  0  0  0  0  0
    2.2084    3.2411   -3.3072 C   0  0  0  0  0  0  0  0  0  0  0  0
    2.9120    2.1902   -2.6702 C   0  0  0  0  0  0  0  0  0  0  0  0
    3.2718   -1.3461    0.4941 N   0  0  0  0  0  0  0  0  0  0  0  0
    2.9094   -2.4008    1.3701 C   0  0  0  0  0  0  0  0  0  0  0  0
    1.6014   -2.6675    1.7992 C   0  0  0  0  0  0  0  0  0  0  0  0
    1.3230   -3.7342    2.6526 C   0  0  0  0  0  0  0  0  0  0  0  0
    2.3488   -4.5550    3.0979 C   0  0  0  0  0  0  0  0  0  0  0  0
    3.6597   -4.2964    2.6713 C   0  0  0  0  0  0  0  0  0  0  0  0
    4.9339   -5.3129    3.2051 Cl  0  0  0  0  0  0  0  0  0  0  0  0
    3.9381   -3.2249    1.8206 C   0  0  0  0  0  0  0  0  0  0  0  0
    3.9541    0.2357   -1.2593 H   0  0  0  0  0  0  0  0  0  0  0  0
    0.5634    1.4390   -0.3277 H   0  0  0  0  0  0  0  0  0  0  0  0
   -0.6808    2.8907   -1.6014 H   0  0  0  0  0  0  0  0  0  0  0  0
   -0.8217    5.6765    0.7222 H   0  0  0  0  0  0  0  0  0  0  0  0
   -2.8827    3.8874    0.7716 H   0  0  0  0  0  0  0  0  0  0  0  0
   -4.2930    2.4695   -0.7231 H   0  0  0  0  0  0  0  0  0  0  0  0
   -2.5966    4.2957   -4.2126 H   0  0  0  0  0  0  0  0  0  0  0  0
    2.6585    3.7763   -4.1388 H   0  0  0  0  0  0  0  0  0  0  0  0
    3.8982    1.9263   -3.0411 H   0  0  0  0  0  0  0  0  0  0  0  0
    4.2515   -1.2211    0.2971 H   0  0  0  0  0  0  0  0  0  0  0  0
    0.7506   -2.0661    1.4925 H   0  0  0  0  0  0  0  0  0  0  0  0
    0.2984   -3.9193    2.9687 H   0  0  0  0  0  0  0  0  0  0  0  0
    2.1404   -5.3880    3.7479 H   0  0  0  0  0  0  0  0  0  0  0  0
    4.9642   -3.0546    1.5114 H   0  0  0  0  0  0  0  0  0  0  0  0
  1  2  2  0  0  0  0
  2  3  1  0  0  0  0
  2 22  1  0  0  0  0
  3  4  1  0  0  0  0
  3 30  1  0  0  0  0
  4  5  1  0  0  0  0
  4 21  2  0  0  0  0
  5  6  2  0  0  0  0
  5 31  1  0  0  0  0
  6  7  1  0  0  0  0
  6 32  1  0  0  0  0
  7  8  1  0  0  0  0
  7 20  2  0  0  0  0
  8  9  2  0  0  0  0
  9 10  1  0  0  0  0
  9 19  1  0  0  0  0
 10 11  2  0  0  0  0
 10 12  1  0  0  0  0
 12 13  1  0  0  0  0
 12 33  1  0  0  0  0
 13 14  1  0  0  0  0
 13 19  2  0  0  0  0
 14 15  2  0  0  0  0
 14 34  1  0  0  0  0
 15 16  1  0  0  0  0
 15 35  1  0  0  0  0
 16 17  1  0  0  0  0
 16 18  2  0  0  0  0
 18 19  1  0  0  0  0
 18 36  1  0  0  0  0
 20 21  1  0  0  0  0
 20 37  1  0  0  0  0
 21 38  1  0  0  0  0
 22 23  1  0  0  0  0
 22 39  1  0  0  0  0
 23 24  1  0  0  0  0
 23 29  2  0  0  0  0
 24 25  2  0  0  0  0
 24 40  1  0  0  0  0
 25 26  1  0  0  0  0
 25 41  1  0  0  0  0
 26 27  2  0  0  0  0
 26 42  1  0  0  0  0
 27 28  1  0  0  0  0
 27 29  1  0  0  0  0
 29 43  1  0  0  0  0
M  END
$$$$
