CHEMBL2386816
 OpenBabel04072215363D

 65 69  0  0  0  0  0  0  0  0999 V2000
    2.4181   -0.5094   -0.0846 C   0  0  0  0  0  0  0  0  0  0  0  0
    1.0518   -0.0456   -0.3026 N   0  0  0  0  0  0  0  0  0  0  0  0
    0.1358   -1.1871   -0.5302 C   0  0  0  0  0  0  0  0  0  0  0  0
   -1.3240   -0.7255   -0.7683 C   0  0  0  0  0  0  0  0  0  0  0  0
   -1.7597    0.0977    0.3702 N   0  0  0  0  0  0  0  0  0  0  0  0
   -3.0247    0.0272    0.9039 C   0  0  0  0  0  0  0  0  0  0  0  0
   -3.2359    0.3343    2.2594 C   0  0  0  0  0  0  0  0  0  0  0  0
   -4.4968    0.2584    2.8602 C   0  0  0  0  0  0  0  0  0  0  0  0
   -5.5931   -0.1353    2.0972 C   0  0  0  0  0  0  0  0  0  0  0  0
   -6.9682   -0.2046    2.6421 C   0  0  0  0  0  0  0  0  0  0  0  0
   -7.9332   -0.0431    1.9133 O   0  0  0  0  0  0  0  0  0  0  0  0
   -7.1363   -0.4561    4.0532 N   0  0  0  0  0  0  0  0  0  0  0  0
   -8.3958   -0.5454    4.6380 C   0  0  0  0  0  0  0  0  0  0  0  0
   -9.6123   -0.7390    4.0359 C   0  0  0  0  0  0  0  0  0  0  0  0
  -10.5865   -0.7433    5.0779 C   0  0  0  0  0  0  0  0  0  0  0  0
  -12.0229   -0.9701    4.9340 C   0  0  0  0  0  0  0  0  0  0  0  0
  -12.5240   -1.2890    3.6709 C   0  0  0  0  0  0  0  0  0  0  0  0
  -13.8792   -1.5392    3.4782 C   0  0  0  0  0  0  0  0  0  0  0  0
  -14.7692   -1.4500    4.5338 C   0  0  0  0  0  0  0  0  0  0  0  0
  -16.1475   -1.6409    4.3385 N   0  0  0  0  0  0  0  0  0  0  0  0
  -16.7966   -1.9379    3.1529 C   0  0  0  0  0  0  0  0  0  0  0  0
  -16.2750   -2.1195    2.0528 O   0  0  0  0  0  0  0  0  0  0  0  0
  -18.1246   -2.2258    3.2843 N   0  0  0  0  0  0  0  0  0  0  0  0
  -18.8705   -1.9876    4.4278 C   0  0  0  0  0  0  0  0  0  0  0  0
  -19.6803   -3.0069    4.8892 C   0  0  0  0  0  0  0  0  0  0  0  0
  -20.4190   -2.7819    6.0424 C   0  0  0  0  0  0  0  0  0  0  0  0
  -20.3586   -1.5378    6.6614 C   0  0  0  0  0  0  0  0  0  0  0  0
  -19.4997   -0.5869    6.1411 C   0  0  0  0  0  0  0  0  0  0  0  0
  -18.7182   -0.8083    5.0672 N   0  0  0  0  0  0  0  0  0  0  0  0
  -14.2900   -1.1565    5.8077 C   0  0  0  0  0  0  0  0  0  0  0  0
  -12.9161   -0.9186    6.0144 C   0  0  0  0  0  0  0  0  0  0  0  0
   -9.9940   -0.5296    6.2608 N   0  0  0  0  0  0  0  0  0  0  0  0
   -8.6935   -0.4731    5.9716 N   0  0  0  0  0  0  0  0  0  0  0  0
   -5.4108   -0.4429    0.7428 C   0  0  0  0  0  0  0  0  0  0  0  0
   -4.1382   -0.3788    0.1641 C   0  0  0  0  0  0  0  0  0  0  0  0
   -0.8764    1.2422    0.6602 C   0  0  0  0  0  0  0  0  0  0  0  0
    0.5707    0.7405    0.8552 C   0  0  0  0  0  0  0  0  0  0  0  0
    2.7788   -1.0546   -0.9635 H   0  0  0  0  0  0  0  0  0  0  0  0
    2.5037   -1.1648    0.7892 H   0  0  0  0  0  0  0  0  0  0  0  0
    3.0916    0.3432    0.0549 H   0  0  0  0  0  0  0  0  0  0  0  0
    0.1549   -1.8644    0.3361 H   0  0  0  0  0  0  0  0  0  0  0  0
    0.4650   -1.7628   -1.4026 H   0  0  0  0  0  0  0  0  0  0  0  0
   -1.9460   -1.6215   -0.8796 H   0  0  0  0  0  0  0  0  0  0  0  0
   -1.3899   -0.1507   -1.7004 H   0  0  0  0  0  0  0  0  0  0  0  0
   -2.3853    0.6141    2.8780 H   0  0  0  0  0  0  0  0  0  0  0  0
   -4.5771    0.5434    3.9033 H   0  0  0  0  0  0  0  0  0  0  0  0
   -6.3262   -0.5591    4.6482 H   0  0  0  0  0  0  0  0  0  0  0  0
   -9.7954   -0.8959    2.9847 H   0  0  0  0  0  0  0  0  0  0  0  0
  -11.8925   -1.3556    2.7894 H   0  0  0  0  0  0  0  0  0  0  0  0
  -14.1848   -1.7901    2.4701 H   0  0  0  0  0  0  0  0  0  0  0  0
  -16.7523   -1.5062    5.1358 H   0  0  0  0  0  0  0  0  0  0  0  0
  -18.4617   -2.8781    2.5947 H   0  0  0  0  0  0  0  0  0  0  0  0
  -19.6890   -3.9757    4.4032 H   0  0  0  0  0  0  0  0  0  0  0  0
  -21.0522   -3.5678    6.4404 H   0  0  0  0  0  0  0  0  0  0  0  0
  -20.9740   -1.3136    7.5243 H   0  0  0  0  0  0  0  0  0  0  0  0
  -19.4233    0.4054    6.5772 H   0  0  0  0  0  0  0  0  0  0  0  0
  -14.9585   -1.1068    6.6692 H   0  0  0  0  0  0  0  0  0  0  0  0
  -12.5558   -0.6895    7.0132 H   0  0  0  0  0  0  0  0  0  0  0  0
   -8.0437   -0.3303    6.7467 H   0  0  0  0  0  0  0  0  0  0  0  0
   -6.2562   -0.7325    0.1195 H   0  0  0  0  0  0  0  0  0  0  0  0
   -4.0388   -0.6229   -0.8920 H   0  0  0  0  0  0  0  0  0  0  0  0
   -1.1767    1.7905    1.5591 H   0  0  0  0  0  0  0  0  0  0  0  0
   -0.9214    1.9633   -0.1670 H   0  0  0  0  0  0  0  0  0  0  0  0
    0.6060    0.1300    1.7684 H   0  0  0  0  0  0  0  0  0  0  0  0
    1.2201    1.6090    1.0145 H   0  0  0  0  0  0  0  0  0  0  0  0
  1  2  1  0  0  0  0
  1 38  1  0  0  0  0
  1 39  1  0  0  0  0
  1 40  1  0  0  0  0
  2  3  1  0  0  0  0
  2 37  1  0  0  0  0
  3  4  1  0  0  0  0
  3 41  1  0  0  0  0
  3 42  1  0  0  0  0
  4  5  1  0  0  0  0
  4 43  1  0  0  0  0
  4 44  1  0  0  0  0
  5  6  1  0  0  0  0
  5 36  1  0  0  0  0
  6  7  1  0  0  0  0
  6 35  2  0  0  0  0
  7  8  2  0  0  0  0
  7 45  1  0  0  0  0
  8  9  1  0  0  0  0
  8 46  1  0  0  0  0
  9 10  1  0  0  0  0
  9 34  2  0  0  0  0
 10 11  2  0  0  0  0
 10 12  1  0  0  0  0
 12 13  1  0  0  0  0
 12 47  1  0  0  0  0
 13 14  2  0  0  0  0
 13 33  1  0  0  0  0
 14 15  1  0  0  0  0
 14 48  1  0  0  0  0
 15 16  1  0  0  0  0
 15 32  2  0  0  0  0
 16 17  1  0  0  0  0
 16 31  2  0  0  0  0
 17 18  2  0  0  0  0
 17 49  1  0  0  0  0
 18 19  1  0  0  0  0
 18 50  1  0  0  0  0
 19 20  1  0  0  0  0
 19 30  2  0  0  0  0
 20 21  1  0  0  0  0
 20 51  1  0  0  0  0
 21 22  2  0  0  0  0
 21 23  1  0  0  0  0
 23 24  1  0  0  0  0
 23 52  1  0  0  0  0
 24 25  1  0  0  0  0
 24 29  2  0  0  0  0
 25 26  2  0  0  0  0
 25 53  1  0  0  0  0
 26 27  1  0  0  0  0
 26 54  1  0  0  0  0
 27 28  2  0  0  0  0
 27 55  1  0  0  0  0
 28 29  1  0  0  0  0
 28 56  1  0  0  0  0
 30 31  1  0  0  0  0
 30 57  1  0  0  0  0
 31 58  1  0  0  0  0
 32 33  1  0  0  0  0
 33 59  1  0  0  0  0
 34 35  1  0  0  0  0
 34 60  1  0  0  0  0
 35 61  1  0  0  0  0
 36 37  1  0  0  0  0
 36 62  1  0  0  0  0
 36 63  1  0  0  0  0
 37 64  1  0  0  0  0
 37 65  1  0  0  0  0
M  END
$$$$
