CHEMBL3936087
 OpenBabel04072215373D

 73 77  0  0  0  0  0  0  0  0999 V2000
    0.2207    2.7550   -2.7040 C   0  0  0  0  0  0  0  0  0  0  0  0
    1.4879    2.6186   -3.3536 O   0  0  0  0  0  0  0  0  0  0  0  0
    2.5419    2.1787   -2.5840 C   0  0  0  0  0  0  0  0  0  0  0  0
    2.4461    1.9050   -1.2188 C   0  0  0  0  0  0  0  0  0  0  0  0
    3.5529    1.4227   -0.5290 C   0  0  0  0  0  0  0  0  0  0  0  0
    3.5860    1.0909    0.7993 O   0  0  0  0  0  0  0  0  0  0  0  0
    2.4180    1.3704    1.5620 C   0  0  0  0  0  0  0  0  0  0  0  0
    4.7571    1.2091   -1.2106 C   0  0  0  0  0  0  0  0  0  0  0  0
    4.8974    1.4511   -2.5834 C   0  0  0  0  0  0  0  0  0  0  0  0
    6.0439    1.0277   -3.3001 N   0  0  0  0  0  0  0  0  0  0  0  0
    6.6999   -0.2622   -2.8185 C   0  0  0  0  0  0  0  0  0  0  0  0
    5.7802   -1.4979   -2.8521 C   0  0  0  0  0  0  0  0  0  0  0  0
    6.4736   -2.8121   -2.3728 C   0  0  0  0  0  0  0  0  0  0  0  0
    7.0130   -2.8405   -0.9923 N   0  0  0  0  0  0  0  0  0  0  0  0
    5.9735   -2.5771    0.0120 C   0  0  0  0  0  0  0  0  0  0  0  0
    6.5491   -2.5968    1.4322 C   0  0  0  0  0  0  0  0  0  0  0  0
    7.2455   -3.9197    1.7703 C   0  0  0  0  0  0  0  0  0  0  0  0
    6.2615   -5.0655    2.0192 C   0  0  0  0  0  0  0  0  0  0  0  0
    4.9723   -4.6801    1.9040 F   0  0  0  0  0  0  0  0  0  0  0  0
    6.4487   -6.1074    1.1820 F   0  0  0  0  0  0  0  0  0  0  0  0
    6.4159   -5.5423    3.2783 F   0  0  0  0  0  0  0  0  0  0  0  0
    8.2647   -4.2360    0.6687 C   0  0  0  0  0  0  0  0  0  0  0  0
    7.6504   -4.1551   -0.7358 C   0  0  0  0  0  0  0  0  0  0  0  0
    7.0521    1.8302   -3.9490 C   0  0  0  0  0  0  0  0  0  0  0  0
    7.5580    1.2852   -5.1254 C   0  0  0  0  0  0  0  0  0  0  0  0
    8.8538    1.5538   -5.5138 C   0  0  0  0  0  0  0  0  0  0  0  0
    9.6284    2.4655   -4.8527 C   0  0  0  0  0  0  0  0  0  0  0  0
   10.9118    2.4577   -5.1964 N   0  0  0  0  0  0  0  0  0  0  0  0
   11.6782    3.4364   -4.6968 C   0  0  0  0  0  0  0  0  0  0  0  0
   11.1376    4.4780   -3.9681 C   0  0  0  0  0  0  0  0  0  0  0  0
   11.9678    5.6845   -3.9166 C   0  0  0  0  0  0  0  0  0  0  0  0
   11.9322    6.8197   -4.7709 C   0  0  0  0  0  0  0  0  0  0  0  0
   13.0122    7.6028   -4.6485 N   0  0  0  0  0  0  0  0  0  0  0  0
   13.7540    6.9698   -3.7245 N   0  0  0  0  0  0  0  0  0  0  0  0
   14.9229    7.6080   -3.1643 C   0  0  0  0  0  0  0  0  0  0  0  0
   13.2389    5.7515   -3.3689 C   0  0  0  0  0  0  0  0  0  0  0  0
    9.8442    4.4399   -3.5128 N   0  0  0  0  0  0  0  0  0  0  0  0
    9.0580    3.3530   -3.8830 C   0  0  0  0  0  0  0  0  0  0  0  0
    7.7376    2.9551   -3.4151 C   0  0  0  0  0  0  0  0  0  0  0  0
    3.7703    1.9706   -3.2544 C   0  0  0  0  0  0  0  0  0  0  0  0
   -0.5223    3.0584   -3.4487 H   0  0  0  0  0  0  0  0  0  0  0  0
    0.2524    3.5357   -1.9349 H   0  0  0  0  0  0  0  0  0  0  0  0
   -0.1190    1.8032   -2.2773 H   0  0  0  0  0  0  0  0  0  0  0  0
    1.5104    2.0512   -0.6964 H   0  0  0  0  0  0  0  0  0  0  0  0
    2.6358    1.1264    2.6055 H   0  0  0  0  0  0  0  0  0  0  0  0
    1.5789    0.7446    1.2400 H   0  0  0  0  0  0  0  0  0  0  0  0
    2.1589    2.4336    1.5159 H   0  0  0  0  0  0  0  0  0  0  0  0
    5.5883    0.8097   -0.6390 H   0  0  0  0  0  0  0  0  0  0  0  0
    7.1339   -0.1044   -1.8230 H   0  0  0  0  0  0  0  0  0  0  0  0
    7.5473   -0.5232   -3.4566 H   0  0  0  0  0  0  0  0  0  0  0  0
    5.4647   -1.6641   -3.8913 H   0  0  0  0  0  0  0  0  0  0  0  0
    4.8634   -1.3464   -2.2863 H   0  0  0  0  0  0  0  0  0  0  0  0
    7.2973   -3.0177   -3.0694 H   0  0  0  0  0  0  0  0  0  0  0  0
    5.7524   -3.6252   -2.4999 H   0  0  0  0  0  0  0  0  0  0  0  0
    5.1528   -3.2977   -0.0796 H   0  0  0  0  0  0  0  0  0  0  0  0
    5.5520   -1.5812   -0.1451 H   0  0  0  0  0  0  0  0  0  0  0  0
    5.7551   -2.3867    2.1579 H   0  0  0  0  0  0  0  0  0  0  0  0
    7.2783   -1.7816    1.5308 H   0  0  0  0  0  0  0  0  0  0  0  0
    7.8025   -3.7714    2.7055 H   0  0  0  0  0  0  0  0  0  0  0  0
    8.7061   -5.2274    0.8322 H   0  0  0  0  0  0  0  0  0  0  0  0
    9.0926   -3.5186    0.7357 H   0  0  0  0  0  0  0  0  0  0  0  0
    6.9249   -4.9685   -0.8696 H   0  0  0  0  0  0  0  0  0  0  0  0
    8.4559   -4.3270   -1.4605 H   0  0  0  0  0  0  0  0  0  0  0  0
    7.0034    0.4996   -5.6500 H   0  0  0  0  0  0  0  0  0  0  0  0
    9.2884    0.9751   -6.3164 H   0  0  0  0  0  0  0  0  0  0  0  0
   12.7206    3.4028   -4.9821 H   0  0  0  0  0  0  0  0  0  0  0  0
   11.1914    7.0814   -5.5160 H   0  0  0  0  0  0  0  0  0  0  0  0
   15.0742    8.5859   -3.6302 H   0  0  0  0  0  0  0  0  0  0  0  0
   15.7979    6.9741   -3.3277 H   0  0  0  0  0  0  0  0  0  0  0  0
   14.7401    7.7375   -2.0942 H   0  0  0  0  0  0  0  0  0  0  0  0
   13.8130    5.0596   -2.7671 H   0  0  0  0  0  0  0  0  0  0  0  0
    7.3352    3.4785   -2.5519 H   0  0  0  0  0  0  0  0  0  0  0  0
    3.8112    2.1466   -4.3270 H   0  0  0  0  0  0  0  0  0  0  0  0
  1  2  1  0  0  0  0
  1 41  1  0  0  0  0
  1 42  1  0  0  0  0
  1 43  1  0  0  0  0
  2  3  1  0  0  0  0
  3  4  1  0  0  0  0
  3 40  2  0  0  0  0
  4  5  2  0  0  0  0
  4 44  1  0  0  0  0
  5  6  1  0  0  0  0
  5  8  1  0  0  0  0
  6  7  1  0  0  0  0
  7 45  1  0  0  0  0
  7 46  1  0  0  0  0
  7 47  1  0  0  0  0
  8  9  2  0  0  0  0
  8 48  1  0  0  0  0
  9 10  1  0  0  0  0
  9 40  1  0  0  0  0
 10 11  1  0  0  0  0
 10 24  1  0  0  0  0
 11 12  1  0  0  0  0
 11 49  1  0  0  0  0
 11 50  1  0  0  0  0
 12 13  1  0  0  0  0
 12 51  1  0  0  0  0
 12 52  1  0  0  0  0
 13 14  1  0  0  0  0
 13 53  1  0  0  0  0
 13 54  1  0  0  0  0
 14 15  1  0  0  0  0
 14 23  1  0  0  0  0
 15 16  1  0  0  0  0
 15 55  1  0  0  0  0
 15 56  1  0  0  0  0
 16 17  1  0  0  0  0
 16 57  1  0  0  0  0
 16 58  1  0  0  0  0
 17 18  1  0  0  0  0
 17 22  1  0  0  0  0
 17 59  1  0  0  0  0
 18 19  1  0  0  0  0
 18 20  1  0  0  0  0
 18 21  1  0  0  0  0
 22 23  1  0  0  0  0
 22 60  1  0  0  0  0
 22 61  1  0  0  0  0
 23 62  1  0  0  0  0
 23 63  1  0  0  0  0
 24 25  1  0  0  0  0
 24 39  2  0  0  0  0
 25 26  2  0  0  0  0
 25 64  1  0  0  0  0
 26 27  1  0  0  0  0
 26 65  1  0  0  0  0
 27 28  1  0  0  0  0
 27 38  2  0  0  0  0
 28 29  2  0  0  0  0
 29 30  1  0  0  0  0
 29 66  1  0  0  0  0
 30 31  1  0  0  0  0
 30 37  2  0  0  0  0
 31 32  1  0  0  0  0
 31 36  2  0  0  0  0
 32 33  2  0  0  0  0
 32 67  1  0  0  0  0
 33 34  1  0  0  0  0
 34 35  1  0  0  0  0
 34 36  1  0  0  0  0
 35 68  1  0  0  0  0
 35 69  1  0  0  0  0
 35 70  1  0  0  0  0
 36 71  1  0  0  0  0
 37 38  1  0  0  0  0
 38 39  1  0  0  0  0
 39 72  1  0  0  0  0
 40 73  1  0  0  0  0
M  END
$$$$
