CHEMBL270754
 OpenBabel04072215363D

 49 52  0  0  0  0  0  0  0  0999 V2000
    1.8147    0.7882   -0.7755 C   0  0  0  0  0  0  0  0  0  0  0  0
    3.1120    0.6919   -0.1496 N   0  0  0  0  0  0  0  0  0  0  0  0
    3.3800   -0.3256    0.7511 C   0  0  0  0  0  0  0  0  0  0  0  0
    2.5366   -1.1460    1.0830 O   0  0  0  0  0  0  0  0  0  0  0  0
    4.7716   -0.3631    1.3120 C   0  0  0  0  0  0  0  0  0  0  0  0
    5.3858    0.8710    1.5983 C   0  0  0  0  0  0  0  0  0  0  0  0
    6.6566    0.9055    2.1597 C   0  0  0  0  0  0  0  0  0  0  0  0
    7.3147   -0.2856    2.4561 C   0  0  0  0  0  0  0  0  0  0  0  0
    6.7280   -1.5329    2.1936 C   0  0  0  0  0  0  0  0  0  0  0  0
    7.4187   -2.7265    2.5227 C   0  0  0  0  0  0  0  0  0  0  0  0
    6.8563   -3.9805    2.2832 C   0  0  0  0  0  0  0  0  0  0  0  0
    7.6014   -5.0855    2.6610 O   0  0  0  0  0  0  0  0  0  0  0  0
    6.9435   -6.2251    3.1134 C   0  0  0  0  0  0  0  0  0  0  0  0
    5.7819   -6.1349    3.8708 C   0  0  0  0  0  0  0  0  0  0  0  0
    5.1376   -7.3088    4.2019 C   0  0  0  0  0  0  0  0  0  0  0  0
    5.5888   -8.5335    3.8526 N   0  0  0  0  0  0  0  0  0  0  0  0
    6.7555   -8.6275    3.1811 C   0  0  0  0  0  0  0  0  0  0  0  0
    7.2228   -9.8865    2.8070 C   0  0  0  0  0  0  0  0  0  0  0  0
    8.4228  -10.1012    2.0914 C   0  0  0  0  0  0  0  0  0  0  0  0
    8.4996  -11.3726    1.5847 O   0  0  0  0  0  0  0  0  0  0  0  0
    9.6251  -12.1885    1.8681 C   0  0  0  0  0  0  0  0  0  0  0  0
    9.2154   -8.9927    1.7837 C   0  0  0  0  0  0  0  0  0  0  0  0
   10.3925   -8.8442    1.1230 O   0  0  0  0  0  0  0  0  0  0  0  0
   11.1307   -9.9187    0.5955 C   0  0  0  0  0  0  0  0  0  0  0  0
    8.7255   -7.7135    2.1444 C   0  0  0  0  0  0  0  0  0  0  0  0
    7.4982   -7.4950    2.8082 C   0  0  0  0  0  0  0  0  0  0  0  0
    5.6184   -4.0485    1.6487 C   0  0  0  0  0  0  0  0  0  0  0  0
    4.9194   -2.8807    1.3412 C   0  0  0  0  0  0  0  0  0  0  0  0
    5.4359   -1.5893    1.6053 C   0  0  0  0  0  0  0  0  0  0  0  0
    1.7597    1.7278   -1.3308 H   0  0  0  0  0  0  0  0  0  0  0  0
    1.0338    0.7603   -0.0119 H   0  0  0  0  0  0  0  0  0  0  0  0
    1.6870   -0.0565   -1.4568 H   0  0  0  0  0  0  0  0  0  0  0  0
    3.8672    1.2540   -0.5171 H   0  0  0  0  0  0  0  0  0  0  0  0
    4.8690    1.8105    1.4194 H   0  0  0  0  0  0  0  0  0  0  0  0
    7.1280    1.8623    2.3892 H   0  0  0  0  0  0  0  0  0  0  0  0
    8.3043   -0.2318    2.9121 H   0  0  0  0  0  0  0  0  0  0  0  0
    8.4017   -2.6741    2.9866 H   0  0  0  0  0  0  0  0  0  0  0  0
    5.3594   -5.1865    4.1789 H   0  0  0  0  0  0  0  0  0  0  0  0
    4.1934   -7.2955    4.7348 H   0  0  0  0  0  0  0  0  0  0  0  0
    6.5937  -10.7429    3.0468 H   0  0  0  0  0  0  0  0  0  0  0  0
    9.2765  -13.1982    2.1118 H   0  0  0  0  0  0  0  0  0  0  0  0
   10.2491  -11.8275    2.6898 H   0  0  0  0  0  0  0  0  0  0  0  0
   10.2046  -12.3054    0.9489 H   0  0  0  0  0  0  0  0  0  0  0  0
   11.9661   -9.4918    0.0294 H   0  0  0  0  0  0  0  0  0  0  0  0
   10.5405  -10.5057   -0.1088 H   0  0  0  0  0  0  0  0  0  0  0  0
   11.5816  -10.5167    1.3932 H   0  0  0  0  0  0  0  0  0  0  0  0
    9.3274   -6.8457    1.8659 H   0  0  0  0  0  0  0  0  0  0  0  0
    5.1637   -5.0068    1.4053 H   0  0  0  0  0  0  0  0  0  0  0  0
    3.9306   -2.9981    0.8884 H   0  0  0  0  0  0  0  0  0  0  0  0
  1  2  1  0  0  0  0
  1 30  1  0  0  0  0
  1 31  1  0  0  0  0
  1 32  1  0  0  0  0
  2  3  1  0  0  0  0
  2 33  1  0  0  0  0
  3  4  2  0  0  0  0
  3  5  1  0  0  0  0
  5  6  1  0  0  0  0
  5 29  2  0  0  0  0
  6  7  2  0  0  0  0
  6 34  1  0  0  0  0
  7  8  1  0  0  0  0
  7 35  1  0  0  0  0
  8  9  2  0  0  0  0
  8 36  1  0  0  0  0
  9 10  1  0  0  0  0
  9 29  1  0  0  0  0
 10 11  2  0  0  0  0
 10 37  1  0  0  0  0
 11 12  1  0  0  0  0
 11 27  1  0  0  0  0
 12 13  1  0  0  0  0
 13 14  1  0  0  0  0
 13 26  2  0  0  0  0
 14 15  2  0  0  0  0
 14 38  1  0  0  0  0
 15 16  1  0  0  0  0
 15 39  1  0  0  0  0
 16 17  2  0  0  0  0
 17 18  1  0  0  0  0
 17 26  1  0  0  0  0
 18 19  2  0  0  0  0
 18 40  1  0  0  0  0
 19 20  1  0  0  0  0
 19 22  1  0  0  0  0
 20 21  1  0  0  0  0
 21 41  1  0  0  0  0
 21 42  1  0  0  0  0
 21 43  1  0  0  0  0
 22 23  1  0  0  0  0
 22 25  2  0  0  0  0
 23 24  1  0  0  0  0
 24 44  1  0  0  0  0
 24 45  1  0  0  0  0
 24 46  1  0  0  0  0
 25 26  1  0  0  0  0
 25 47  1  0  0  0  0
 27 28  2  0  0  0  0
 27 48  1  0  0  0  0
 28 29  1  0  0  0  0
 28 49  1  0  0  0  0
M  END
$$$$
