CHEMBL3898150
 OpenBabel04072215373D

 59 62  0  0  0  0  0  0  0  0999 V2000
    3.3669    6.0356    1.5101 C   0  0  0  0  0  0  0  0  0  0  0  0
    1.9532    6.4247    1.1817 C   0  0  0  0  0  0  0  0  0  0  0  0
    1.5975    7.7767    1.2037 C   0  0  0  0  0  0  0  0  0  0  0  0
    0.3056    8.1584    0.8729 C   0  0  0  0  0  0  0  0  0  0  0  0
   -0.6417    7.1982    0.5282 C   0  0  0  0  0  0  0  0  0  0  0  0
   -1.8126    7.6770    0.0923 F   0  0  0  0  0  0  0  0  0  0  0  0
   -0.3444    5.8257    0.5462 C   0  0  0  0  0  0  0  0  0  0  0  0
   -1.2862    4.7918    0.2669 N   0  0  0  0  0  0  0  0  0  0  0  0
   -2.6646    4.9362    0.2882 C   0  0  0  0  0  0  0  0  0  0  0  0
   -3.2674    5.9534    0.5781 O   0  0  0  0  0  0  0  0  0  0  0  0
   -3.3408    3.7559    0.0161 N   0  0  0  0  0  0  0  0  0  0  0  0
   -4.7674    3.7744    0.0309 C   0  0  0  0  0  0  0  0  0  0  0  0
   -5.5023    4.6607   -0.7680 C   0  0  0  0  0  0  0  0  0  0  0  0
   -6.9023    4.6641   -0.7134 C   0  0  0  0  0  0  0  0  0  0  0  0
   -7.5738    3.7950    0.1496 C   0  0  0  0  0  0  0  0  0  0  0  0
   -8.9499    3.8733    0.1613 O   0  0  0  0  0  0  0  0  0  0  0  0
   -9.6923    2.7307    0.3907 C   0  0  0  0  0  0  0  0  0  0  0  0
   -9.2939    1.4613   -0.0312 C   0  0  0  0  0  0  0  0  0  0  0  0
  -10.1004    0.3764    0.2422 C   0  0  0  0  0  0  0  0  0  0  0  0
  -11.2933    0.4349    0.8555 N   0  0  0  0  0  0  0  0  0  0  0  0
  -11.7061    1.6752    1.2299 C   0  0  0  0  0  0  0  0  0  0  0  0
  -12.9410    1.9561    1.8785 C   0  0  0  0  0  0  0  0  0  0  0  0
  -13.0981    3.2932    2.1807 C   0  0  0  0  0  0  0  0  0  0  0  0
  -14.2288    3.8967    2.8755 C   0  0  0  0  0  0  0  0  0  0  0  0
  -15.1993    3.2436    3.2478 O   0  0  0  0  0  0  0  0  0  0  0  0
  -14.1404    5.2555    3.0862 N   0  0  0  0  0  0  0  0  0  0  0  0
  -15.1789    6.0239    3.7411 C   0  0  0  0  0  0  0  0  0  0  0  0
  -15.7543    7.0983    2.8240 C   0  0  0  0  0  0  0  0  0  0  0  0
  -16.3903    6.4895    1.5752 C   0  0  0  0  0  0  0  0  0  0  0  0
  -16.9486    7.5323    0.7208 N   0  0  0  0  0  0  0  0  0  0  0  0
  -11.7616    4.2107    1.6325 S   0  0  0  0  0  0  0  0  0  0  0  0
  -10.9460    2.8263    1.0204 C   0  0  0  0  0  0  0  0  0  0  0  0
   -6.8409    2.9466    0.9842 C   0  0  0  0  0  0  0  0  0  0  0  0
   -5.4527    2.9193    0.8922 C   0  0  0  0  0  0  0  0  0  0  0  0
   -4.7668    2.0920    1.6973 F   0  0  0  0  0  0  0  0  0  0  0  0
    0.9793    5.4545    0.8535 C   0  0  0  0  0  0  0  0  0  0  0  0
    3.9814    6.9199    1.7187 H   0  0  0  0  0  0  0  0  0  0  0  0
    3.8244    5.5130    0.6649 H   0  0  0  0  0  0  0  0  0  0  0  0
    3.3945    5.3989    2.3990 H   0  0  0  0  0  0  0  0  0  0  0  0
    2.3249    8.5436    1.4566 H   0  0  0  0  0  0  0  0  0  0  0  0
    0.0204    9.2056    0.8564 H   0  0  0  0  0  0  0  0  0  0  0  0
   -0.9258    3.8567    0.1518 H   0  0  0  0  0  0  0  0  0  0  0  0
   -2.9375    2.9476    0.4779 H   0  0  0  0  0  0  0  0  0  0  0  0
   -4.9914    5.3575   -1.4290 H   0  0  0  0  0  0  0  0  0  0  0  0
   -7.4630    5.3541   -1.3416 H   0  0  0  0  0  0  0  0  0  0  0  0
   -8.3542    1.3036   -0.5479 H   0  0  0  0  0  0  0  0  0  0  0  0
   -9.7799   -0.6227   -0.0427 H   0  0  0  0  0  0  0  0  0  0  0  0
  -13.6763    1.1996    2.1263 H   0  0  0  0  0  0  0  0  0  0  0  0
  -13.3304    5.7420    2.7222 H   0  0  0  0  0  0  0  0  0  0  0  0
  -14.7162    6.4942    4.6176 H   0  0  0  0  0  0  0  0  0  0  0  0
  -15.9748    5.3645    4.0986 H   0  0  0  0  0  0  0  0  0  0  0  0
  -14.9617    7.8005    2.5344 H   0  0  0  0  0  0  0  0  0  0  0  0
  -16.5030    7.6723    3.3838 H   0  0  0  0  0  0  0  0  0  0  0  0
  -17.1796    5.7842    1.8568 H   0  0  0  0  0  0  0  0  0  0  0  0
  -15.6414    5.9383    0.9966 H   0  0  0  0  0  0  0  0  0  0  0  0
  -17.7031    8.0099    1.2108 H   0  0  0  0  0  0  0  0  0  0  0  0
  -17.3753    7.0943   -0.0957 H   0  0  0  0  0  0  0  0  0  0  0  0
   -7.3271    2.2977    1.7021 H   0  0  0  0  0  0  0  0  0  0  0  0
    1.2671    4.4054    0.8629 H   0  0  0  0  0  0  0  0  0  0  0  0
  1  2  1  0  0  0  0
  1 37  1  0  0  0  0
  1 38  1  0  0  0  0
  1 39  1  0  0  0  0
  2  3  1  0  0  0  0
  2 36  2  0  0  0  0
  3  4  2  0  0  0  0
  3 40  1  0  0  0  0
  4  5  1  0  0  0  0
  4 41  1  0  0  0  0
  5  6  1  0  0  0  0
  5  7  2  0  0  0  0
  7  8  1  0  0  0  0
  7 36  1  0  0  0  0
  8  9  1  0  0  0  0
  8 42  1  0  0  0  0
  9 10  2  0  0  0  0
  9 11  1  0  0  0  0
 11 12  1  0  0  0  0
 11 43  1  0  0  0  0
 12 13  1  0  0  0  0
 12 34  2  0  0  0  0
 13 14  2  0  0  0  0
 13 44  1  0  0  0  0
 14 15  1  0  0  0  0
 14 45  1  0  0  0  0
 15 16  1  0  0  0  0
 15 33  2  0  0  0  0
 16 17  1  0  0  0  0
 17 18  1  0  0  0  0
 17 32  2  0  0  0  0
 18 19  2  0  0  0  0
 18 46  1  0  0  0  0
 19 20  1  0  0  0  0
 19 47  1  0  0  0  0
 20 21  2  0  0  0  0
 21 22  1  0  0  0  0
 21 32  1  0  0  0  0
 22 23  2  0  0  0  0
 22 48  1  0  0  0  0
 23 24  1  0  0  0  0
 23 31  1  0  0  0  0
 24 25  2  0  0  0  0
 24 26  1  0  0  0  0
 26 27  1  0  0  0  0
 26 49  1  0  0  0  0
 27 28  1  0  0  0  0
 27 50  1  0  0  0  0
 27 51  1  0  0  0  0
 28 29  1  0  0  0  0
 28 52  1  0  0  0  0
 28 53  1  0  0  0  0
 29 30  1  0  0  0  0
 29 54  1  0  0  0  0
 29 55  1  0  0  0  0
 30 56  1  0  0  0  0
 30 57  1  0  0  0  0
 31 32  1  0  0  0  0
 33 34  1  0  0  0  0
 33 58  1  0  0  0  0
 34 35  1  0  0  0  0
 36 59  1  0  0  0  0
M  END
$$$$
