CHEMBL1173541
 OpenBabel04072215363D

 61 64  0  0  0  0  0  0  0  0999 V2000
   12.4047    1.8444   -6.8633 C   0  0  0  0  0  0  0  0  0  0  0  0
   11.3810    1.0807   -6.2191 O   0  0  0  0  0  0  0  0  0  0  0  0
   10.1872    1.7279   -6.0406 C   0  0  0  0  0  0  0  0  0  0  0  0
    9.9393    3.0294   -6.4504 C   0  0  0  0  0  0  0  0  0  0  0  0
    8.7041    3.6237   -6.2082 C   0  0  0  0  0  0  0  0  0  0  0  0
    7.6746    2.9638   -5.5351 C   0  0  0  0  0  0  0  0  0  0  0  0
    6.4406    3.6068   -5.2239 N   0  0  0  0  0  0  0  0  0  0  0  0
    6.1287    4.9155   -5.5488 C   0  0  0  0  0  0  0  0  0  0  0  0
    6.8621    5.6908   -6.1700 O   0  0  0  0  0  0  0  0  0  0  0  0
    4.8837    5.3388   -5.1055 N   0  0  0  0  0  0  0  0  0  0  0  0
    4.4885    6.6928   -5.3355 C   0  0  0  0  0  0  0  0  0  0  0  0
    4.1772    7.4964   -4.2272 C   0  0  0  0  0  0  0  0  0  0  0  0
    3.7612    8.8244   -4.3883 C   0  0  0  0  0  0  0  0  0  0  0  0
    3.6621    9.3384   -5.6725 C   0  0  0  0  0  0  0  0  0  0  0  0
    4.0115    8.5611   -6.7779 C   0  0  0  0  0  0  0  0  0  0  0  0
    4.4239    7.2383   -6.6390 C   0  0  0  0  0  0  0  0  0  0  0  0
    3.8717    9.3180   -7.9457 N   0  0  0  0  0  0  0  0  0  0  0  0
    3.4163   10.6213   -7.6696 C   0  0  0  0  0  0  0  0  0  0  0  0
    3.2220   11.5163   -8.4585 O   0  0  0  0  0  0  0  0  0  0  0  0
    3.2199   10.6551   -6.1745 C   0  0  0  0  0  0  0  0  0  0  0  0
    2.7063   11.5633   -5.3229 C   0  0  0  0  0  0  0  0  0  0  0  0
    2.1566   12.8611   -5.5172 C   0  0  0  0  0  0  0  0  0  0  0  0
    2.0631   13.4414   -6.7538 N   0  0  0  0  0  0  0  0  0  0  0  0
    1.4695   14.6823   -6.6543 C   0  0  0  0  0  0  0  0  0  0  0  0
    1.2566   15.4905   -7.8840 C   0  0  0  0  0  0  0  0  0  0  0  0
    1.1865   14.9331   -5.3156 C   0  0  0  0  0  0  0  0  0  0  0  0
    0.5743   16.1807   -4.7014 C   0  0  0  0  0  0  0  0  0  0  0  0
   -0.8436   16.4712   -5.1816 C   0  0  0  0  0  0  0  0  0  0  0  0
   -1.4569   17.6837   -4.5281 C   0  0  0  0  0  0  0  0  0  0  0  0
   -0.9367   18.3982   -3.6869 O   0  0  0  0  0  0  0  0  0  0  0  0
   -2.7152   17.9185   -4.9942 O   0  0  0  0  0  0  0  0  0  0  0  0
    1.6292   13.7669   -4.5950 C   0  0  0  0  0  0  0  0  0  0  0  0
    1.5455   13.5569   -3.1150 C   0  0  0  0  0  0  0  0  0  0  0  0
    7.9061    1.6318   -5.1615 C   0  0  0  0  0  0  0  0  0  0  0  0
    9.1573    1.0222   -5.4121 C   0  0  0  0  0  0  0  0  0  0  0  0
   13.2750    1.2013   -7.0188 H   0  0  0  0  0  0  0  0  0  0  0  0
   12.7178    2.6894   -6.2378 H   0  0  0  0  0  0  0  0  0  0  0  0
   12.0799    2.1925   -7.8514 H   0  0  0  0  0  0  0  0  0  0  0  0
   10.6780    3.6322   -6.9643 H   0  0  0  0  0  0  0  0  0  0  0  0
    8.6097    4.6366   -6.5775 H   0  0  0  0  0  0  0  0  0  0  0  0
    5.7546    3.0567   -4.7250 H   0  0  0  0  0  0  0  0  0  0  0  0
    4.6118    4.9453   -4.2157 H   0  0  0  0  0  0  0  0  0  0  0  0
    4.3012    7.1172   -3.2129 H   0  0  0  0  0  0  0  0  0  0  0  0
    3.5638    9.4323   -3.5180 H   0  0  0  0  0  0  0  0  0  0  0  0
    4.6739    6.6307   -7.5001 H   0  0  0  0  0  0  0  0  0  0  0  0
    4.0928    8.9961   -8.8764 H   0  0  0  0  0  0  0  0  0  0  0  0
    2.6655   11.2687   -4.2756 H   0  0  0  0  0  0  0  0  0  0  0  0
    2.3840   13.0161   -7.6193 H   0  0  0  0  0  0  0  0  0  0  0  0
    1.6090   14.9607   -8.7760 H   0  0  0  0  0  0  0  0  0  0  0  0
    1.7948   16.4407   -7.8223 H   0  0  0  0  0  0  0  0  0  0  0  0
    0.1922   15.6946   -8.0296 H   0  0  0  0  0  0  0  0  0  0  0  0
    1.2308   17.0375   -4.8949 H   0  0  0  0  0  0  0  0  0  0  0  0
    0.5449   16.0875   -3.6100 H   0  0  0  0  0  0  0  0  0  0  0  0
   -1.4935   15.6156   -4.9646 H   0  0  0  0  0  0  0  0  0  0  0  0
   -0.8405   16.6585   -6.2584 H   0  0  0  0  0  0  0  0  0  0  0  0
   -3.0031   17.2677   -5.6615 H   0  0  0  0  0  0  0  0  0  0  0  0
    1.0932   14.4020   -2.5921 H   0  0  0  0  0  0  0  0  0  0  0  0
    2.5438   13.4128   -2.6896 H   0  0  0  0  0  0  0  0  0  0  0  0
    0.9345   12.6772   -2.8886 H   0  0  0  0  0  0  0  0  0  0  0  0
    7.1350    1.0396   -4.6756 H   0  0  0  0  0  0  0  0  0  0  0  0
    9.3274   -0.0104   -5.1130 H   0  0  0  0  0  0  0  0  0  0  0  0
  1  2  1  0  0  0  0
  1 36  1  0  0  0  0
  1 37  1  0  0  0  0
  1 38  1  0  0  0  0
  2  3  1  0  0  0  0
  3  4  1  0  0  0  0
  3 35  2  0  0  0  0
  4  5  2  0  0  0  0
  4 39  1  0  0  0  0
  5  6  1  0  0  0  0
  5 40  1  0  0  0  0
  6  7  1  0  0  0  0
  6 34  2  0  0  0  0
  7  8  1  0  0  0  0
  7 41  1  0  0  0  0
  8  9  2  0  0  0  0
  8 10  1  0  0  0  0
 10 11  1  0  0  0  0
 10 42  1  0  0  0  0
 11 12  1  0  0  0  0
 11 16  2  0  0  0  0
 12 13  2  0  0  0  0
 12 43  1  0  0  0  0
 13 14  1  0  0  0  0
 13 44  1  0  0  0  0
 14 15  2  0  0  0  0
 14 20  1  0  0  0  0
 15 16  1  0  0  0  0
 15 17  1  0  0  0  0
 16 45  1  0  0  0  0
 17 18  1  0  0  0  0
 17 46  1  0  0  0  0
 18 19  2  0  0  0  0
 18 20  1  0  0  0  0
 20 21  2  0  0  0  0
 21 22  1  0  0  0  0
 21 47  1  0  0  0  0
 22 23  1  0  0  0  0
 22 32  2  0  0  0  0
 23 24  1  0  0  0  0
 23 48  1  0  0  0  0
 24 25  1  0  0  0  0
 24 26  2  0  0  0  0
 25 49  1  0  0  0  0
 25 50  1  0  0  0  0
 25 51  1  0  0  0  0
 26 27  1  0  0  0  0
 26 32  1  0  0  0  0
 27 28  1  0  0  0  0
 27 52  1  0  0  0  0
 27 53  1  0  0  0  0
 28 29  1  0  0  0  0
 28 54  1  0  0  0  0
 28 55  1  0  0  0  0
 29 30  2  0  0  0  0
 29 31  1  0  0  0  0
 31 56  1  0  0  0  0
 32 33  1  0  0  0  0
 33 57  1  0  0  0  0
 33 58  1  0  0  0  0
 33 59  1  0  0  0  0
 34 35  1  0  0  0  0
 34 60  1  0  0  0  0
 35 61  1  0  0  0  0
M  END
$$$$
