CHEMBL1085540
 OpenBabel04072215363D

 65 71  0  0  1  0  0  0  0  0999 V2000
    1.7737   -0.4711    1.0964 C   0  0  0  0  0  0  0  0  0  0  0  0
    2.7094   -1.5076    0.7104 N   0  0  0  0  0  0  0  0  0  0  0  0
    3.7112   -2.1472    1.4323 C   0  0  0  0  0  0  0  0  0  0  0  0
    4.4067   -2.9893    0.5534 C   0  0  0  0  0  0  0  0  0  0  0  0
    3.9820   -2.3556   -0.6931 C   0  0  0  0  0  0  0  0  0  0  0  0
    2.8387   -1.6847   -0.6086 N   0  0  0  0  0  0  0  0  0  0  0  0
    4.9216   -2.0206   -1.8087 C   0  0  0  0  0  0  0  0  0  0  0  0
    6.1174   -2.9209   -1.6863 C   0  0  0  0  0  0  0  0  0  0  0  0
    6.6131   -2.7218   -0.2515 C   0  0  0  0  0  0  0  0  0  0  0  0
    5.8383   -3.4198    0.6980 C   0  0  0  0  0  0  0  0  0  0  0  0
    6.5194   -4.6525    0.9293 C   0  0  0  0  0  0  0  0  0  0  0  0
    7.9737   -4.7752    0.8104 C   0  0  0  0  0  0  0  0  0  0  0  0
    8.6887   -3.5733    0.5627 C   0  0  0  0  0  0  0  0  0  0  0  0
   10.0396   -3.2939    0.4430 C   0  0  0  0  0  0  0  0  0  0  0  0
   11.2947   -3.9529    0.4443 C   0  0  0  0  0  0  0  0  0  0  0  0
   12.4873   -3.2204    0.2126 C   0  0  0  0  0  0  0  0  0  0  0  0
   13.8169   -3.9316   -0.0451 C   0  0  3  0  0  0  0  0  0  0  0  0
   14.8874   -3.1328   -0.8246 C   0  0  0  0  0  0  0  0  0  0  0  0
   14.5053   -2.9463   -2.2916 C   0  0  0  0  0  0  0  0  0  0  0  0
   14.2045   -4.2943   -2.9266 C   0  0  0  0  0  0  0  0  0  0  0  0
   13.2309   -5.0996   -2.0769 C   0  0  0  0  0  0  0  0  0  0  0  0
   13.6338   -5.1973   -0.7077 O   0  0  0  0  0  0  0  0  0  0  0  0
   12.4276   -1.8206    0.2165 C   0  0  0  0  0  0  0  0  0  0  0  0
   11.2183   -1.1378    0.2041 C   0  0  0  0  0  0  0  0  0  0  0  0
   10.0426   -1.8938    0.2196 C   0  0  0  0  0  0  0  0  0  0  0  0
    8.7420   -1.4877    0.0189 N   0  0  0  0  0  0  0  0  0  0  0  0
    8.2307   -0.1447   -0.1963 C   0  0  0  0  0  0  0  0  0  0  0  0
    7.1311    0.2795    0.7918 C   0  0  0  0  0  0  0  0  0  0  0  0
    7.5607    0.2032    2.2494 C   0  0  0  0  0  0  0  0  0  0  0  0
    6.4970    0.6536    3.0816 O   0  0  0  0  0  0  0  0  0  0  0  0
    7.9180   -2.5597    0.0827 C   0  0  0  0  0  0  0  0  0  0  0  0
    8.4426   -6.1574    0.7645 C   0  0  0  0  0  0  0  0  0  0  0  0
    7.1555   -6.8209    0.8502 N   0  0  0  0  0  0  0  0  0  0  0  0
    6.0160   -6.0057    0.9770 C   0  0  0  0  0  0  0  0  0  0  0  0
    4.8870   -6.4758    0.9654 O   0  0  0  0  0  0  0  0  0  0  0  0
    2.3000    0.4878    1.1420 H   0  0  0  0  0  0  0  0  0  0  0  0
    1.2973   -0.7194    2.0423 H   0  0  0  0  0  0  0  0  0  0  0  0
    1.0039   -0.3973    0.3144 H   0  0  0  0  0  0  0  0  0  0  0  0
    3.9105   -1.8318    2.4535 H   0  0  0  0  0  0  0  0  0  0  0  0
    5.2624   -0.9832   -1.6602 H   0  0  0  0  0  0  0  0  0  0  0  0
    4.4439   -2.0801   -2.7850 H   0  0  0  0  0  0  0  0  0  0  0  0
    6.9021   -2.7242   -2.4175 H   0  0  0  0  0  0  0  0  0  0  0  0
    5.8063   -3.9727   -1.8219 H   0  0  0  0  0  0  0  0  0  0  0  0
   11.3357   -5.0363    0.5325 H   0  0  0  0  0  0  0  0  0  0  0  0
   14.2357   -4.1600    0.9432 H   0  0  0  0  0  0  0  0  0  0  0  0
   15.8287   -3.6976   -0.7963 H   0  0  0  0  0  0  0  0  0  0  0  0
   15.1049   -2.1627   -0.3672 H   0  0  0  0  0  0  0  0  0  0  0  0
   15.3192   -2.4505   -2.8329 H   0  0  0  0  0  0  0  0  0  0  0  0
   13.6279   -2.2949   -2.3790 H   0  0  0  0  0  0  0  0  0  0  0  0
   15.1436   -4.8513   -3.0273 H   0  0  0  0  0  0  0  0  0  0  0  0
   13.7999   -4.1563   -3.9359 H   0  0  0  0  0  0  0  0  0  0  0  0
   13.1725   -6.1204   -2.4688 H   0  0  0  0  0  0  0  0  0  0  0  0
   12.2223   -4.6785   -2.1400 H   0  0  0  0  0  0  0  0  0  0  0  0
   13.3296   -1.2167    0.1688 H   0  0  0  0  0  0  0  0  0  0  0  0
   11.2087   -0.0569    0.1140 H   0  0  0  0  0  0  0  0  0  0  0  0
    7.8328   -0.1296   -1.2188 H   0  0  0  0  0  0  0  0  0  0  0  0
    9.0626    0.5618   -0.1506 H   0  0  0  0  0  0  0  0  0  0  0  0
    6.2246   -0.3231    0.6665 H   0  0  0  0  0  0  0  0  0  0  0  0
    6.8083    1.2986    0.5494 H   0  0  0  0  0  0  0  0  0  0  0  0
    8.4379    0.8287    2.4343 H   0  0  0  0  0  0  0  0  0  0  0  0
    7.7973   -0.8216    2.5498 H   0  0  0  0  0  0  0  0  0  0  0  0
    6.2670    1.5572    2.8090 H   0  0  0  0  0  0  0  0  0  0  0  0
    9.0736   -6.4477    1.6067 H   0  0  0  0  0  0  0  0  0  0  0  0
    8.9158   -6.3881   -0.1942 H   0  0  0  0  0  0  0  0  0  0  0  0
    7.0323   -7.7902    0.6037 H   0  0  0  0  0  0  0  0  0  0  0  0
  1  2  1  0  0  0  0
  1 36  1  0  0  0  0
  1 37  1  0  0  0  0
  1 38  1  0  0  0  0
  2  3  1  0  0  0  0
  2  6  1  0  0  0  0
  3  4  2  0  0  0  0
  3 39  1  0  0  0  0
  4  5  1  0  0  0  0
  4 10  1  0  0  0  0
  5  6  2  0  0  0  0
  5  7  1  0  0  0  0
  7  8  1  0  0  0  0
  7 40  1  0  0  0  0
  7 41  1  0  0  0  0
  8  9  1  0  0  0  0
  8 42  1  0  0  0  0
  8 43  1  0  0  0  0
  9 10  1  0  0  0  0
  9 31  2  0  0  0  0
 10 11  2  0  0  0  0
 11 12  1  0  0  0  0
 11 34  1  0  0  0  0
 12 13  2  0  0  0  0
 12 32  1  0  0  0  0
 13 14  1  0  0  0  0
 13 31  1  0  0  0  0
 14 15  1  0  0  0  0
 14 25  2  0  0  0  0
 15 16  2  0  0  0  0
 15 44  1  0  0  0  0
 16 17  1  0  0  0  0
 16 23  1  0  0  0  0
 17 18  1  0  0  0  0
 17 22  1  0  0  0  0
 17 45  1  0  0  0  0
 18 19  1  0  0  0  0
 18 46  1  0  0  0  0
 18 47  1  0  0  0  0
 19 20  1  0  0  0  0
 19 48  1  0  0  0  0
 19 49  1  0  0  0  0
 20 21  1  0  0  0  0
 20 50  1  0  0  0  0
 20 51  1  0  0  0  0
 21 22  1  0  0  0  0
 21 52  1  0  0  0  0
 21 53  1  0  0  0  0
 23 24  2  0  0  0  0
 23 54  1  0  0  0  0
 24 25  1  0  0  0  0
 24 55  1  0  0  0  0
 25 26  1  0  0  0  0
 26 27  1  0  0  0  0
 26 31  1  0  0  0  0
 27 28  1  0  0  0  0
 27 56  1  0  0  0  0
 27 57  1  0  0  0  0
 28 29  1  0  0  0  0
 28 58  1  0  0  0  0
 28 59  1  0  0  0  0
 29 30  1  0  0  0  0
 29 60  1  0  0  0  0
 29 61  1  0  0  0  0
 30 62  1  0  0  0  0
 32 33  1  0  0  0  0
 32 63  1  0  0  0  0
 32 64  1  0  0  0  0
 33 34  1  0  0  0  0
 33 65  1  0  0  0  0
 34 35  2  0  0  0  0
M  END
$$$$
