CHEMBL4067760
 OpenBabel04072215383D

 70 74  0  0  0  0  0  0  0  0999 V2000
    0.9712   -0.1558    0.0123 C   0  0  0  0  0  0  0  0  0  0  0  0
    2.4742   -0.1214   -0.0637 C   0  0  0  0  0  0  0  0  0  0  0  0
    3.0965    0.9999   -0.6260 C   0  0  0  0  0  0  0  0  0  0  0  0
    4.4838    1.0568   -0.7309 C   0  0  0  0  0  0  0  0  0  0  0  0
    5.2783   -0.0046   -0.2778 C   0  0  0  0  0  0  0  0  0  0  0  0
    6.7512    0.1572   -0.4142 C   0  0  0  0  0  0  0  0  0  0  0  0
    7.1942    1.2969   -0.3078 O   0  0  0  0  0  0  0  0  0  0  0  0
    7.4806   -0.9777   -0.7457 N   0  0  0  0  0  0  0  0  0  0  0  0
    8.8621   -0.9760   -1.0707 C   0  0  0  0  0  0  0  0  0  0  0  0
    9.7136    0.0770   -0.7490 C   0  0  0  0  0  0  0  0  0  0  0  0
   11.0330    0.0964   -1.2011 C   0  0  0  0  0  0  0  0  0  0  0  0
   11.5482   -0.9440   -1.9904 C   0  0  0  0  0  0  0  0  0  0  0  0
   12.9517   -0.7750   -2.5389 C   0  0  0  0  0  0  0  0  0  0  0  0
   12.9929   -0.7603   -4.0015 N   0  0  0  0  0  0  0  0  0  0  0  0
   12.2230    0.3313   -4.6205 C   0  0  0  0  0  0  0  0  0  0  0  0
   12.2905    0.2462   -6.1645 C   0  0  0  0  0  0  0  0  0  0  0  0
   13.6561    0.2465   -6.7272 N   0  0  0  0  0  0  0  0  0  0  0  0
   14.2676    1.5695   -6.6425 C   0  0  0  0  0  0  0  0  0  0  0  0
   14.4638   -0.7755   -6.0304 C   0  0  0  0  0  0  0  0  0  0  0  0
   14.3855   -0.7320   -4.4861 C   0  0  0  0  0  0  0  0  0  0  0  0
   10.7258   -2.0573   -2.2681 C   0  0  0  0  0  0  0  0  0  0  0  0
   11.1540   -3.2510   -3.1031 C   0  0  0  0  0  0  0  0  0  0  0  0
   12.4523   -3.3011   -3.4974 F   0  0  0  0  0  0  0  0  0  0  0  0
   10.9596   -4.4212   -2.4219 F   0  0  0  0  0  0  0  0  0  0  0  0
   10.4052   -3.3735   -4.2378 F   0  0  0  0  0  0  0  0  0  0  0  0
    9.3890   -2.0580   -1.7854 C   0  0  0  0  0  0  0  0  0  0  0  0
    4.6731   -1.1241    0.3038 C   0  0  0  0  0  0  0  0  0  0  0  0
    3.2714   -1.1845    0.4045 C   0  0  0  0  0  0  0  0  0  0  0  0
    2.6624   -2.3505    0.9792 C   0  0  0  0  0  0  0  0  0  0  0  0
    2.1252   -3.3279    1.4287 C   0  0  0  0  0  0  0  0  0  0  0  0
    1.4880   -4.5000    1.9387 C   0  0  0  0  0  0  0  0  0  0  0  0
    2.1948   -5.5067    2.5799 C   0  0  0  0  0  0  0  0  0  0  0  0
    1.6459   -6.6460    3.0609 N   0  0  0  0  0  0  0  0  0  0  0  0
    0.3141   -6.8425    2.9171 C   0  0  0  0  0  0  0  0  0  0  0  0
   -0.4605   -5.8670    2.2865 C   0  0  0  0  0  0  0  0  0  0  0  0
    0.1042   -4.6868    1.7903 C   0  0  0  0  0  0  0  0  0  0  0  0
   -0.9630   -3.9352    1.2155 C   0  0  0  0  0  0  0  0  0  0  0  0
   -2.1258   -4.6576    1.3718 C   0  0  0  0  0  0  0  0  0  0  0  0
   -1.8127   -5.8218    2.0204 N   0  0  0  0  0  0  0  0  0  0  0  0
   -2.7671   -6.8519    2.3723 C   0  0  0  0  0  0  0  0  0  0  0  0
    0.5309    0.7695   -0.3759 H   0  0  0  0  0  0  0  0  0  0  0  0
    0.6387   -0.2651    1.0493 H   0  0  0  0  0  0  0  0  0  0  0  0
    0.5813   -0.9818   -0.5909 H   0  0  0  0  0  0  0  0  0  0  0  0
    2.5074    1.8399   -0.9886 H   0  0  0  0  0  0  0  0  0  0  0  0
    4.9486    1.9386   -1.1705 H   0  0  0  0  0  0  0  0  0  0  0  0
    6.9614   -1.8143   -0.9803 H   0  0  0  0  0  0  0  0  0  0  0  0
    9.3794    0.9199   -0.1519 H   0  0  0  0  0  0  0  0  0  0  0  0
   11.6454    0.9629   -0.9568 H   0  0  0  0  0  0  0  0  0  0  0  0
   13.5523   -1.6055   -2.1454 H   0  0  0  0  0  0  0  0  0  0  0  0
   13.4101    0.1400   -2.1388 H   0  0  0  0  0  0  0  0  0  0  0  0
   12.5828    1.3095   -4.2775 H   0  0  0  0  0  0  0  0  0  0  0  0
   11.1655    0.2611   -4.3424 H   0  0  0  0  0  0  0  0  0  0  0  0
   11.6981    1.0567   -6.6061 H   0  0  0  0  0  0  0  0  0  0  0  0
   11.7960   -0.6828   -6.4813 H   0  0  0  0  0  0  0  0  0  0  0  0
   13.6590    2.3041   -7.1816 H   0  0  0  0  0  0  0  0  0  0  0  0
   15.2501    1.5645   -7.1268 H   0  0  0  0  0  0  0  0  0  0  0  0
   14.3969    1.9246   -5.6154 H   0  0  0  0  0  0  0  0  0  0  0  0
   15.5122   -0.7107   -6.3472 H   0  0  0  0  0  0  0  0  0  0  0  0
   14.1169   -1.7629   -6.3639 H   0  0  0  0  0  0  0  0  0  0  0  0
   14.9042    0.1622   -4.1159 H   0  0  0  0  0  0  0  0  0  0  0  0
   14.9277   -1.6022   -4.0962 H   0  0  0  0  0  0  0  0  0  0  0  0
    8.7520   -2.9074   -2.0314 H   0  0  0  0  0  0  0  0  0  0  0  0
    5.2790   -1.9325    0.7043 H   0  0  0  0  0  0  0  0  0  0  0  0
    3.2679   -5.4266    2.7296 H   0  0  0  0  0  0  0  0  0  0  0  0
   -0.0867   -7.7661    3.3108 H   0  0  0  0  0  0  0  0  0  0  0  0
   -0.8871   -2.9681    0.7373 H   0  0  0  0  0  0  0  0  0  0  0  0
   -3.1410   -4.4312    1.0706 H   0  0  0  0  0  0  0  0  0  0  0  0
   -3.7662   -6.5534    2.0447 H   0  0  0  0  0  0  0  0  0  0  0  0
   -2.7564   -6.9772    3.4583 H   0  0  0  0  0  0  0  0  0  0  0  0
   -2.4763   -7.7795    1.8722 H   0  0  0  0  0  0  0  0  0  0  0  0
  1  2  1  0  0  0  0
  1 41  1  0  0  0  0
  1 42  1  0  0  0  0
  1 43  1  0  0  0  0
  2  3  1  0  0  0  0
  2 28  2  0  0  0  0
  3  4  2  0  0  0  0
  3 44  1  0  0  0  0
  4  5  1  0  0  0  0
  4 45  1  0  0  0  0
  5  6  1  0  0  0  0
  5 27  2  0  0  0  0
  6  7  2  0  0  0  0
  6  8  1  0  0  0  0
  8  9  1  0  0  0  0
  8 46  1  0  0  0  0
  9 10  1  0  0  0  0
  9 26  2  0  0  0  0
 10 11  2  0  0  0  0
 10 47  1  0  0  0  0
 11 12  1  0  0  0  0
 11 48  1  0  0  0  0
 12 13  1  0  0  0  0
 12 21  2  0  0  0  0
 13 14  1  0  0  0  0
 13 49  1  0  0  0  0
 13 50  1  0  0  0  0
 14 15  1  0  0  0  0
 14 20  1  0  0  0  0
 15 16  1  0  0  0  0
 15 51  1  0  0  0  0
 15 52  1  0  0  0  0
 16 17  1  0  0  0  0
 16 53  1  0  0  0  0
 16 54  1  0  0  0  0
 17 18  1  0  0  0  0
 17 19  1  0  0  0  0
 18 55  1  0  0  0  0
 18 56  1  0  0  0  0
 18 57  1  0  0  0  0
 19 20  1  0  0  0  0
 19 58  1  0  0  0  0
 19 59  1  0  0  0  0
 20 60  1  0  0  0  0
 20 61  1  0  0  0  0
 21 22  1  0  0  0  0
 21 26  1  0  0  0  0
 22 23  1  0  0  0  0
 22 24  1  0  0  0  0
 22 25  1  0  0  0  0
 26 62  1  0  0  0  0
 27 28  1  0  0  0  0
 27 63  1  0  0  0  0
 28 29  1  0  0  0  0
 29 30  3  0  0  0  0
 30 31  1  0  0  0  0
 31 32  1  0  0  0  0
 31 36  2  0  0  0  0
 32 33  2  0  0  0  0
 32 64  1  0  0  0  0
 33 34  1  0  0  0  0
 34 35  2  0  0  0  0
 34 65  1  0  0  0  0
 35 36  1  0  0  0  0
 35 39  1  0  0  0  0
 36 37  1  0  0  0  0
 37 38  2  0  0  0  0
 37 66  1  0  0  0  0
 38 39  1  0  0  0  0
 38 67  1  0  0  0  0
 39 40  1  0  0  0  0
 40 68  1  0  0  0  0
 40 69  1  0  0  0  0
 40 70  1  0  0  0  0
M  END
$$$$
