CHEMBL4757787
 OpenBabel04072215383D

 62 65  0  0  0  0  0  0  0  0999 V2000
    2.6486   -1.8568   -2.3584 C   0  0  0  0  0  0  0  0  0  0  0  0
    3.6330   -3.0163   -2.3808 C   0  0  0  0  0  0  0  0  0  0  0  0
    3.9237   -3.4804   -1.0501 O   0  0  0  0  0  0  0  0  0  0  0  0
    4.8511   -2.7700   -0.3537 C   0  0  0  0  0  0  0  0  0  0  0  0
    5.4863   -1.8254   -0.7835 O   0  0  0  0  0  0  0  0  0  0  0  0
    4.8446   -3.2442    1.1132 C   0  0  0  0  0  0  0  0  0  0  0  0
    3.7483   -3.7089    1.6411 N   0  0  0  0  0  0  0  0  0  0  0  0
    3.7021   -3.9037    2.9782 N   0  0  0  0  0  0  0  0  0  0  0  0
    2.5626   -4.4376    3.6001 C   0  0  0  0  0  0  0  0  0  0  0  0
    1.4103   -4.8249    2.8979 C   0  0  0  0  0  0  0  0  0  0  0  0
    0.2654   -5.2689    3.5776 C   0  0  0  0  0  0  0  0  0  0  0  0
    0.2616   -5.3030    4.9777 C   0  0  0  0  0  0  0  0  0  0  0  0
   -0.9367   -5.7388    5.7042 N   0  3  0  0  0  0  0  0  0  0  0  0
   -1.9312   -6.0605    5.0373 O   0  0  0  0  0  0  0  0  0  0  0  0
   -0.8870   -5.7578    6.9433 O   0  5  0  0  0  0  0  0  0  0  0  0
    1.3959   -4.9128    5.6947 C   0  0  0  0  0  0  0  0  0  0  0  0
    2.5320   -4.4839    5.0018 C   0  0  0  0  0  0  0  0  0  0  0  0
    6.4043   -2.8589    1.7808 S   0  0  0  0  0  0  0  0  0  0  0  0
    6.9113   -4.3099    2.5888 C   0  0  0  0  0  0  0  0  0  0  0  0
    5.9920   -5.2107    3.0211 N   0  0  0  0  0  0  0  0  0  0  0  0
    8.1257   -4.6149    2.9510 N   0  0  0  0  0  0  0  0  0  0  0  0
    9.1458   -3.6687    2.9737 N   0  0  0  0  0  0  0  0  0  0  0  0
   10.1247   -4.2321    3.6323 C   0  0  0  0  0  0  0  0  0  0  0  0
   10.3853   -5.7499    3.6651 C   0  0  0  0  0  0  0  0  0  0  0  0
   10.5880   -6.4495    2.7006 O   0  0  0  0  0  0  0  0  0  0  0  0
   10.3559   -6.0726    5.0075 N   0  0  0  0  0  0  0  0  0  0  0  0
   10.3054   -7.4236    5.5074 C   0  0  0  0  0  0  0  0  0  0  0  0
    8.9317   -7.8324    5.9955 C   0  0  0  0  0  0  0  0  0  0  0  0
    7.8365   -7.8889    5.1198 C   0  0  0  0  0  0  0  0  0  0  0  0
    6.5742   -8.2822    5.5721 C   0  0  0  0  0  0  0  0  0  0  0  0
    6.3903   -8.6355    6.9093 C   0  0  0  0  0  0  0  0  0  0  0  0
    7.4704   -8.6022    7.7875 C   0  0  0  0  0  0  0  0  0  0  0  0
    8.7331   -8.2067    7.3335 C   0  0  0  0  0  0  0  0  0  0  0  0
   10.4498   -4.9026    5.7801 C   0  0  0  0  0  0  0  0  0  0  0  0
   10.4689   -4.7854    7.1555 C   0  0  0  0  0  0  0  0  0  0  0  0
   10.6245   -3.5046    7.6942 C   0  0  0  0  0  0  0  0  0  0  0  0
   10.7518   -2.3762    6.8577 C   0  0  0  0  0  0  0  0  0  0  0  0
   10.9930   -0.8307    7.5766 Cl  0  0  0  0  0  0  0  0  0  0  0  0
   10.6665   -2.4856    5.4689 C   0  0  0  0  0  0  0  0  0  0  0  0
   10.5186   -3.7598    4.9627 C   0  0  0  0  0  0  0  0  0  0  0  0
    2.3868   -1.5509   -3.3766 H   0  0  0  0  0  0  0  0  0  0  0  0
    3.0665   -0.9907   -1.8360 H   0  0  0  0  0  0  0  0  0  0  0  0
    1.7302   -2.1352   -1.8310 H   0  0  0  0  0  0  0  0  0  0  0  0
    4.5527   -2.7478   -2.9123 H   0  0  0  0  0  0  0  0  0  0  0  0
    3.1818   -3.8562   -2.9205 H   0  0  0  0  0  0  0  0  0  0  0  0
    4.5553   -3.8867    3.5444 H   0  0  0  0  0  0  0  0  0  0  0  0
    1.3948   -4.7810    1.8102 H   0  0  0  0  0  0  0  0  0  0  0  0
   -0.6097   -5.5684    3.0030 H   0  0  0  0  0  0  0  0  0  0  0  0
    1.4116   -4.9203    6.7824 H   0  0  0  0  0  0  0  0  0  0  0  0
    3.3954   -4.1639    5.5757 H   0  0  0  0  0  0  0  0  0  0  0  0
    5.2468   -5.4688    2.3824 H   0  0  0  0  0  0  0  0  0  0  0  0
    6.4306   -6.0021    3.4784 H   0  0  0  0  0  0  0  0  0  0  0  0
   11.0522   -7.5271    6.3007 H   0  0  0  0  0  0  0  0  0  0  0  0
   10.6003   -8.1175    4.7092 H   0  0  0  0  0  0  0  0  0  0  0  0
    7.9732   -7.6415    4.0686 H   0  0  0  0  0  0  0  0  0  0  0  0
    5.7318   -8.3291    4.8857 H   0  0  0  0  0  0  0  0  0  0  0  0
    5.4096   -8.9534    7.2588 H   0  0  0  0  0  0  0  0  0  0  0  0
    7.3325   -8.8963    8.8258 H   0  0  0  0  0  0  0  0  0  0  0  0
    9.5614   -8.1968    8.0471 H   0  0  0  0  0  0  0  0  0  0  0  0
   10.3493   -5.6429    7.8063 H   0  0  0  0  0  0  0  0  0  0  0  0
   10.6416   -3.3845    8.7757 H   0  0  0  0  0  0  0  0  0  0  0  0
   10.6974   -1.6173    4.8207 H   0  0  0  0  0  0  0  0  0  0  0  0
  1  2  1  0  0  0  0
  1 41  1  0  0  0  0
  1 42  1  0  0  0  0
  1 43  1  0  0  0  0
  2  3  1  0  0  0  0
  2 44  1  0  0  0  0
  2 45  1  0  0  0  0
  3  4  1  0  0  0  0
  4  5  2  0  0  0  0
  4  6  1  0  0  0  0
  6  7  2  0  0  0  0
  6 18  1  0  0  0  0
  7  8  1  0  0  0  0
  8  9  1  0  0  0  0
  8 46  1  0  0  0  0
  9 10  1  0  0  0  0
  9 17  2  0  0  0  0
 10 11  2  0  0  0  0
 10 47  1  0  0  0  0
 11 12  1  0  0  0  0
 11 48  1  0  0  0  0
 12 13  1  0  0  0  0
 12 16  2  0  0  0  0
 13 14  2  0  0  0  0
 13 15  1  0  0  0  0
 16 17  1  0  0  0  0
 16 49  1  0  0  0  0
 17 50  1  0  0  0  0
 18 19  1  0  0  0  0
 19 20  1  0  0  0  0
 19 21  2  0  0  0  0
 20 51  1  0  0  0  0
 20 52  1  0  0  0  0
 21 22  1  0  0  0  0
 22 23  2  0  0  0  0
 23 24  1  0  0  0  0
 23 40  1  0  0  0  0
 24 25  2  0  0  0  0
 24 26  1  0  0  0  0
 26 27  1  0  0  0  0
 26 34  1  0  0  0  0
 27 28  1  0  0  0  0
 27 53  1  0  0  0  0
 27 54  1  0  0  0  0
 28 29  1  0  0  0  0
 28 33  2  0  0  0  0
 29 30  2  0  0  0  0
 29 55  1  0  0  0  0
 30 31  1  0  0  0  0
 30 56  1  0  0  0  0
 31 32  2  0  0  0  0
 31 57  1  0  0  0  0
 32 33  1  0  0  0  0
 32 58  1  0  0  0  0
 33 59  1  0  0  0  0
 34 35  1  0  0  0  0
 34 40  2  0  0  0  0
 35 36  2  0  0  0  0
 35 60  1  0  0  0  0
 36 37  1  0  0  0  0
 36 61  1  0  0  0  0
 37 38  1  0  0  0  0
 37 39  2  0  0  0  0
 39 40  1  0  0  0  0
 39 62  1  0  0  0  0
M  CHG  2  13   1  15  -1
M  END
$$$$
