CHEMBL3927947
 OpenBabel04072215373D

 84 88  0  0  1  0  0  0  0  0999 V2000
    0.5729   -3.8861   -1.6569 C   0  0  0  0  0  0  0  0  0  0  0  0
    1.7672   -4.1954   -1.0188 O   0  0  0  0  0  0  0  0  0  0  0  0
    2.7308   -3.3000   -0.6619 C   0  0  0  0  0  0  0  0  0  0  0  0
    2.5906   -1.9381   -0.9628 C   0  0  0  0  0  0  0  0  0  0  0  0
    3.5742   -1.0220   -0.6237 C   0  0  0  0  0  0  0  0  0  0  0  0
    3.3638    0.2687   -0.9978 O   0  0  0  0  0  0  0  0  0  0  0  0
    4.2306    1.3230   -0.8245 C   0  0  0  0  0  0  0  0  0  0  0  0
    4.7334   -1.4578    0.0501 C   0  0  0  0  0  0  0  0  0  0  0  0
    4.9302   -2.8254    0.3945 C   0  0  0  0  0  0  0  0  0  0  0  0
    6.2156   -3.3089    0.9271 N   0  0  0  0  0  0  0  0  0  0  0  0
    6.9273   -2.4389    1.8584 C   0  0  0  0  0  0  0  0  0  0  0  0
    6.0360   -1.6892    2.9241 C   0  0  0  0  0  0  0  0  0  0  0  0
    5.4216   -2.5195    4.0782 C   0  0  0  0  0  0  0  0  0  0  0  0
    4.6177   -1.6665    5.0170 N   0  0  0  0  0  0  0  0  0  0  0  0
    5.4215   -0.6813    5.7673 C   0  0  0  0  0  0  0  0  0  0  0  0
    5.6741   -1.2989    7.1199 C   0  0  0  0  0  0  0  0  0  0  0  0
    4.2983   -1.8578    7.4691 C   0  0  3  0  0  0  0  0  0  0  0  0
    3.3162   -0.8143    7.9304 N   0  0  0  0  0  0  0  0  0  0  0  0
    2.0435   -1.4832    8.3347 C   0  0  0  0  0  0  0  0  0  0  0  0
    0.9956   -0.4770    8.8394 C   0  0  0  0  0  0  0  0  0  0  0  0
    1.5397    0.2894   10.0402 C   0  0  0  0  0  0  0  0  0  0  0  0
    2.8386    0.9711    9.6346 C   0  0  0  0  0  0  0  0  0  0  0  0
    3.8405   -0.0723    9.1171 C   0  0  0  0  0  0  0  0  0  0  0  0
    3.9503   -2.4744    6.0783 C   0  0  0  0  0  0  0  0  0  0  0  0
    7.0376   -4.0423   -0.0794 C   0  0  0  0  0  0  0  0  0  0  0  0
    6.7056   -3.7198   -1.3930 C   0  0  0  0  0  0  0  0  0  0  0  0
    7.1957   -4.3552   -2.4532 C   0  0  0  0  0  0  0  0  0  0  0  0
    8.0968   -5.3361   -2.3244 C   0  0  0  0  0  0  0  0  0  0  0  0
    8.3518   -5.9713   -3.4434 N   0  0  0  0  0  0  0  0  0  0  0  0
    9.2619   -6.9034   -3.5430 C   0  0  0  0  0  0  0  0  0  0  0  0
   10.1244   -7.1840   -2.4813 C   0  0  0  0  0  0  0  0  0  0  0  0
   11.3698   -7.9475   -3.0007 C   0  0  0  0  0  0  0  0  0  0  0  0
   11.6133   -8.1107   -4.3974 C   0  0  0  0  0  0  0  0  0  0  0  0
   12.7883   -8.6654   -4.6336 N   0  0  0  0  0  0  0  0  0  0  0  0
   13.3631   -8.8987   -3.4809 N   0  0  0  0  0  0  0  0  0  0  0  0
   14.7219   -9.4264   -3.4624 C   0  0  0  0  0  0  0  0  0  0  0  0
   12.5491   -8.5115   -2.4435 C   0  0  0  0  0  0  0  0  0  0  0  0
    9.7987   -6.6109   -1.2214 N   0  0  0  0  0  0  0  0  0  0  0  0
    8.7215   -5.6900   -1.1040 C   0  0  0  0  0  0  0  0  0  0  0  0
    8.1502   -5.0204    0.1000 C   0  0  0  0  0  0  0  0  0  0  0  0
    3.9071   -3.7397    0.0023 C   0  0  0  0  0  0  0  0  0  0  0  0
    1.2994    0.2428    2.6641 Cl  0  0  0  0  0  0  0  0  0  0  0  0
   -0.0354   -4.8042   -1.7985 H   0  0  0  0  0  0  0  0  0  0  0  0
    0.7609   -3.4380   -2.6592 H   0  0  0  0  0  0  0  0  0  0  0  0
   -0.0201   -3.1730   -1.0419 H   0  0  0  0  0  0  0  0  0  0  0  0
    1.7182   -1.5721   -1.4916 H   0  0  0  0  0  0  0  0  0  0  0  0
    3.7544    2.2424   -1.2267 H   0  0  0  0  0  0  0  0  0  0  0  0
    5.1723    1.1406   -1.3841 H   0  0  0  0  0  0  0  0  0  0  0  0
    4.4361    1.4708    0.2544 H   0  0  0  0  0  0  0  0  0  0  0  0
    5.5088   -0.7381    0.2581 H   0  0  0  0  0  0  0  0  0  0  0  0
    7.3930   -1.6278    1.2501 H   0  0  0  0  0  0  0  0  0  0  0  0
    7.7528   -2.9715    2.3689 H   0  0  0  0  0  0  0  0  0  0  0  0
    5.2091   -1.1217    2.4626 H   0  0  0  0  0  0  0  0  0  0  0  0
    6.7136   -0.9290    3.3467 H   0  0  0  0  0  0  0  0  0  0  0  0
    6.2319   -3.0501    4.6243 H   0  0  0  0  0  0  0  0  0  0  0  0
    4.7501   -3.2825    3.6236 H   0  0  0  0  0  0  0  0  0  0  0  0
    4.8075    0.2398    5.8842 H   0  0  0  0  0  0  0  0  0  0  0  0
    6.3762   -0.3826    5.3036 H   0  0  0  0  0  0  0  0  0  0  0  0
    6.1650   -0.6210    7.8411 H   0  0  0  0  0  0  0  0  0  0  0  0
    6.3755   -2.1502    6.9723 H   0  0  0  0  0  0  0  0  0  0  0  0
    4.3797   -2.6336    8.2642 H   0  0  0  0  0  0  0  0  0  0  0  0
    2.2348   -2.2292    9.1418 H   0  0  0  0  0  0  0  0  0  0  0  0
    1.5822   -2.0165    7.4833 H   0  0  0  0  0  0  0  0  0  0  0  0
    0.0680   -1.0124    9.1389 H   0  0  0  0  0  0  0  0  0  0  0  0
    0.7436    0.2349    8.0240 H   0  0  0  0  0  0  0  0  0  0  0  0
    1.7335   -0.4131   10.8818 H   0  0  0  0  0  0  0  0  0  0  0  0
    0.8003    1.0455   10.3839 H   0  0  0  0  0  0  0  0  0  0  0  0
    3.2646    1.5049   10.5130 H   0  0  0  0  0  0  0  0  0  0  0  0
    2.6377    1.7180    8.8356 H   0  0  0  0  0  0  0  0  0  0  0  0
    4.0919   -0.7801    9.9418 H   0  0  0  0  0  0  0  0  0  0  0  0
    4.7427    0.5109    8.8610 H   0  0  0  0  0  0  0  0  0  0  0  0
    2.8697   -2.5998    5.8749 H   0  0  0  0  0  0  0  0  0  0  0  0
    4.3782   -3.5030    6.0843 H   0  0  0  0  0  0  0  0  0  0  0  0
    6.0009   -2.9598   -1.6721 H   0  0  0  0  0  0  0  0  0  0  0  0
    6.8365   -4.0831   -3.4369 H   0  0  0  0  0  0  0  0  0  0  0  0
    9.3025   -7.3159   -4.5162 H   0  0  0  0  0  0  0  0  0  0  0  0
   11.0395   -7.8037   -5.2533 H   0  0  0  0  0  0  0  0  0  0  0  0
   15.0987   -9.5151   -4.5124 H   0  0  0  0  0  0  0  0  0  0  0  0
   14.7588  -10.4334   -3.0034 H   0  0  0  0  0  0  0  0  0  0  0  0
   15.3904   -8.7114   -2.9447 H   0  0  0  0  0  0  0  0  0  0  0  0
   12.8204   -8.5811   -1.4057 H   0  0  0  0  0  0  0  0  0  0  0  0
    8.5116   -5.2729    1.0940 H   0  0  0  0  0  0  0  0  0  0  0  0
    4.0324   -4.7975    0.1927 H   0  0  0  0  0  0  0  0  0  0  0  0
    2.2137   -0.3302    1.8138 H   0  0  0  0  0  0  0  0  0  0  0  0
  1  2  1  0  0  0  0
  1 43  1  0  0  0  0
  1 44  1  0  0  0  0
  1 45  1  0  0  0  0
  2  3  1  0  0  0  0
  3  4  1  0  0  0  0
  3 41  2  0  0  0  0
  4  5  2  0  0  0  0
  4 46  1  0  0  0  0
  5  6  1  0  0  0  0
  5  8  1  0  0  0  0
  6  7  1  0  0  0  0
  7 47  1  0  0  0  0
  7 48  1  0  0  0  0
  7 49  1  0  0  0  0
  8  9  2  0  0  0  0
  8 50  1  0  0  0  0
  9 10  1  0  0  0  0
  9 41  1  0  0  0  0
 10 11  1  0  0  0  0
 10 25  1  0  0  0  0
 11 12  1  0  0  0  0
 11 51  1  0  0  0  0
 11 52  1  0  0  0  0
 12 13  1  0  0  0  0
 12 53  1  0  0  0  0
 12 54  1  0  0  0  0
 13 14  1  0  0  0  0
 13 55  1  0  0  0  0
 13 56  1  0  0  0  0
 14 15  1  0  0  0  0
 14 24  1  0  0  0  0
 15 16  1  0  0  0  0
 15 57  1  0  0  0  0
 15 58  1  0  0  0  0
 16 17  1  0  0  0  0
 16 59  1  0  0  0  0
 16 60  1  0  0  0  0
 17 18  1  0  0  0  0
 17 24  1  0  0  0  0
 17 61  1  0  0  0  0
 18 19  1  0  0  0  0
 18 23  1  0  0  0  0
 19 20  1  0  0  0  0
 19 62  1  0  0  0  0
 19 63  1  0  0  0  0
 20 21  1  0  0  0  0
 20 64  1  0  0  0  0
 20 65  1  0  0  0  0
 21 22  1  0  0  0  0
 21 66  1  0  0  0  0
 21 67  1  0  0  0  0
 22 23  1  0  0  0  0
 22 68  1  0  0  0  0
 22 69  1  0  0  0  0
 23 70  1  0  0  0  0
 23 71  1  0  0  0  0
 24 72  1  0  0  0  0
 24 73  1  0  0  0  0
 25 26  1  0  0  0  0
 25 40  2  0  0  0  0
 26 27  2  0  0  0  0
 26 74  1  0  0  0  0
 27 28  1  0  0  0  0
 27 75  1  0  0  0  0
 28 29  1  0  0  0  0
 28 39  2  0  0  0  0
 29 30  2  0  0  0  0
 30 31  1  0  0  0  0
 30 76  1  0  0  0  0
 31 32  1  0  0  0  0
 31 38  2  0  0  0  0
 32 33  1  0  0  0  0
 32 37  2  0  0  0  0
 33 34  2  0  0  0  0
 33 77  1  0  0  0  0
 34 35  1  0  0  0  0
 35 36  1  0  0  0  0
 35 37  1  0  0  0  0
 36 78  1  0  0  0  0
 36 79  1  0  0  0  0
 36 80  1  0  0  0  0
 37 81  1  0  0  0  0
 38 39  1  0  0  0  0
 39 40  1  0  0  0  0
 40 82  1  0  0  0  0
 41 83  1  0  0  0  0
 42 84  1  0  0  0  0
M  END
$$$$
