CHEMBL3939306
 OpenBabel04072215373D

 77 80  0  0  1  0  0  0  0  0999 V2000
   -0.3898    1.5141    5.9195 C   0  0  0  0  0  0  0  0  0  0  0  0
   -0.0086    0.4787    4.8501 C   0  0  1  0  0  0  0  0  0  0  0  0
    1.4674    0.4251    4.7763 N   0  0  0  0  0  0  0  0  0  0  0  0
    2.0377    1.2568    3.7976 C   0  0  0  0  0  0  0  0  0  0  0  0
    1.3068    1.6205    2.7120 N   0  0  0  0  0  0  0  0  0  0  0  0
    1.8545    2.4276    1.7860 C   0  0  0  0  0  0  0  0  0  0  0  0
    3.0935    2.9385    1.7562 N   0  0  0  0  0  0  0  0  0  0  0  0
    3.7915    2.5675    2.8385 C   0  0  0  0  0  0  0  0  0  0  0  0
    5.0819    2.9401    3.0763 N   0  0  0  0  0  0  0  0  0  0  0  0
    5.4988    2.4658    4.2998 C   0  0  0  0  0  0  0  0  0  0  0  0
    6.8321    2.7020    4.8546 C   0  0  0  0  0  0  0  0  0  0  0  0
    7.0158    2.7641    6.2438 C   0  0  0  0  0  0  0  0  0  0  0  0
    8.2948    2.9045    6.7971 C   0  0  0  0  0  0  0  0  0  0  0  0
    9.4133    2.9842    5.9610 C   0  0  0  0  0  0  0  0  0  0  0  0
   10.7992    3.1538    6.4845 C   0  0  0  0  0  0  0  0  0  0  0  0
   11.7485    2.6922    5.8580 O   0  0  0  0  0  0  0  0  0  0  0  0
   10.9472    3.8707    7.6550 N   0  0  0  0  0  0  0  0  0  0  0  0
   12.2684    4.1995    8.1711 C   0  0  0  0  0  0  0  0  0  0  0  0
   12.8681    5.4914    7.5826 C   0  0  0  0  0  0  0  0  0  0  0  0
   12.0276    6.6634    7.8781 N   0  0  0  0  0  0  0  0  0  0  0  0
   12.6254    7.8746    7.3151 C   0  0  0  0  0  0  0  0  0  0  0  0
   11.7334    9.0742    7.6263 C   0  0  0  0  0  0  0  0  0  0  0  0
   12.3334   10.3532    7.0483 C   0  0  0  0  0  0  0  0  0  0  0  0
   11.4491   11.5606    7.3521 C   0  0  0  0  0  0  0  0  0  0  0  0
   12.0572   12.8327    6.7704 C   0  0  0  0  0  0  0  0  0  0  0  0
   11.1945   14.0605    7.0517 C   0  0  0  0  0  0  0  0  0  0  0  0
   11.8292   15.3062    6.4723 C   0  0  0  0  0  0  0  0  0  0  0  0
   12.8834   15.3261    5.8505 O   0  0  0  0  0  0  0  0  0  0  0  0
   11.1130   16.4530    6.7027 N   0  0  0  0  0  0  0  0  0  0  0  0
   11.6770   17.6443    6.1894 O   0  0  0  0  0  0  0  0  0  0  0  0
    9.2373    2.8981    4.5738 C   0  0  0  0  0  0  0  0  0  0  0  0
    7.9551    2.8009    4.0236 C   0  0  0  0  0  0  0  0  0  0  0  0
    4.4299    1.7392    4.8202 C   0  0  0  0  0  0  0  0  0  0  0  0
    3.3544    1.7686    3.8851 C   0  0  0  0  0  0  0  0  0  0  0  0
   -0.5711   -0.8861    5.2404 C   0  0  0  0  0  0  0  0  0  0  0  0
   -1.4968   -1.5637    4.4292 C   0  0  0  0  0  0  0  0  0  0  0  0
   -2.0169   -2.8021    4.8267 C   0  0  0  0  0  0  0  0  0  0  0  0
   -1.6043   -3.3826    6.0255 C   0  0  0  0  0  0  0  0  0  0  0  0
   -0.6806   -2.7266    6.8325 C   0  0  0  0  0  0  0  0  0  0  0  0
   -0.1835   -1.4827    6.4506 C   0  0  0  0  0  0  0  0  0  0  0  0
   -0.0968    2.5264    5.6225 H   0  0  0  0  0  0  0  0  0  0  0  0
    0.1144    1.3072    6.8715 H   0  0  0  0  0  0  0  0  0  0  0  0
   -1.4686    1.5113    6.1074 H   0  0  0  0  0  0  0  0  0  0  0  0
   -0.4777    0.7707    3.9020 H   0  0  0  0  0  0  0  0  0  0  0  0
    1.7929   -0.5294    4.6216 H   0  0  0  0  0  0  0  0  0  0  0  0
    1.2034    2.6994    0.9591 H   0  0  0  0  0  0  0  0  0  0  0  0
    5.6268    3.5127    2.4463 H   0  0  0  0  0  0  0  0  0  0  0  0
    6.1565    2.6955    6.9078 H   0  0  0  0  0  0  0  0  0  0  0  0
    8.3931    2.9104    7.8778 H   0  0  0  0  0  0  0  0  0  0  0  0
   10.1599    4.3685    8.0484 H   0  0  0  0  0  0  0  0  0  0  0  0
   12.9440    3.3645    7.9597 H   0  0  0  0  0  0  0  0  0  0  0  0
   12.1742    4.2902    9.2580 H   0  0  0  0  0  0  0  0  0  0  0  0
   12.9816    5.3813    6.4975 H   0  0  0  0  0  0  0  0  0  0  0  0
   13.8695    5.6393    8.0093 H   0  0  0  0  0  0  0  0  0  0  0  0
   11.9322    6.7705    8.8875 H   0  0  0  0  0  0  0  0  0  0  0  0
   12.7290    7.7734    6.2285 H   0  0  0  0  0  0  0  0  0  0  0  0
   13.6240    8.0421    7.7374 H   0  0  0  0  0  0  0  0  0  0  0  0
   11.6150    9.1832    8.7121 H   0  0  0  0  0  0  0  0  0  0  0  0
   10.7327    8.9150    7.2051 H   0  0  0  0  0  0  0  0  0  0  0  0
   12.4536   10.2463    5.9629 H   0  0  0  0  0  0  0  0  0  0  0  0
   13.3345   10.5128    7.4683 H   0  0  0  0  0  0  0  0  0  0  0  0
   11.3325   11.6680    8.4370 H   0  0  0  0  0  0  0  0  0  0  0  0
   10.4494   11.4009    6.9304 H   0  0  0  0  0  0  0  0  0  0  0  0
   12.1831   12.7155    5.6862 H   0  0  0  0  0  0  0  0  0  0  0  0
   13.0615   12.9813    7.1875 H   0  0  0  0  0  0  0  0  0  0  0  0
   11.0817   14.1973    8.1371 H   0  0  0  0  0  0  0  0  0  0  0  0
   10.1993   13.9337    6.6173 H   0  0  0  0  0  0  0  0  0  0  0  0
   10.2495   16.5305    7.2253 H   0  0  0  0  0  0  0  0  0  0  0  0
   12.4877   17.3236    5.7615 H   0  0  0  0  0  0  0  0  0  0  0  0
   10.1020    2.9016    3.9128 H   0  0  0  0  0  0  0  0  0  0  0  0
    7.8551    2.7684    2.9415 H   0  0  0  0  0  0  0  0  0  0  0  0
    4.4273    1.2360    5.7776 H   0  0  0  0  0  0  0  0  0  0  0  0
   -1.8346   -1.1354    3.4854 H   0  0  0  0  0  0  0  0  0  0  0  0
   -2.7421   -3.3193    4.2026 H   0  0  0  0  0  0  0  0  0  0  0  0
   -2.0025   -4.3452    6.3354 H   0  0  0  0  0  0  0  0  0  0  0  0
   -0.3416   -3.1752    7.7607 H   0  0  0  0  0  0  0  0  0  0  0  0
    0.5121   -0.9674    7.1080 H   0  0  0  0  0  0  0  0  0  0  0  0
  1  2  1  0  0  0  0
  1 41  1  0  0  0  0
  1 42  1  0  0  0  0
  1 43  1  0  0  0  0
  2  3  1  0  0  0  0
  2 35  1  0  0  0  0
  2 44  1  6  0  0  0
  3  4  1  0  0  0  0
  3 45  1  0  0  0  0
  4  5  1  0  0  0  0
  4 34  2  0  0  0  0
  5  6  2  0  0  0  0
  6  7  1  0  0  0  0
  6 46  1  0  0  0  0
  7  8  2  0  0  0  0
  8  9  1  0  0  0  0
  8 34  1  0  0  0  0
  9 10  1  0  0  0  0
  9 47  1  0  0  0  0
 10 11  1  0  0  0  0
 10 33  2  0  0  0  0
 11 12  1  0  0  0  0
 11 32  2  0  0  0  0
 12 13  2  0  0  0  0
 12 48  1  0  0  0  0
 13 14  1  0  0  0  0
 13 49  1  0  0  0  0
 14 15  1  0  0  0  0
 14 31  2  0  0  0  0
 15 16  2  0  0  0  0
 15 17  1  0  0  0  0
 17 18  1  0  0  0  0
 17 50  1  0  0  0  0
 18 19  1  0  0  0  0
 18 51  1  0  0  0  0
 18 52  1  0  0  0  0
 19 20  1  0  0  0  0
 19 53  1  0  0  0  0
 19 54  1  0  0  0  0
 20 21  1  0  0  0  0
 20 55  1  0  0  0  0
 21 22  1  0  0  0  0
 21 56  1  0  0  0  0
 21 57  1  0  0  0  0
 22 23  1  0  0  0  0
 22 58  1  0  0  0  0
 22 59  1  0  0  0  0
 23 24  1  0  0  0  0
 23 60  1  0  0  0  0
 23 61  1  0  0  0  0
 24 25  1  0  0  0  0
 24 62  1  0  0  0  0
 24 63  1  0  0  0  0
 25 26  1  0  0  0  0
 25 64  1  0  0  0  0
 25 65  1  0  0  0  0
 26 27  1  0  0  0  0
 26 66  1  0  0  0  0
 26 67  1  0  0  0  0
 27 28  2  0  0  0  0
 27 29  1  0  0  0  0
 29 30  1  0  0  0  0
 29 68  1  0  0  0  0
 30 69  1  0  0  0  0
 31 32  1  0  0  0  0
 31 70  1  0  0  0  0
 32 71  1  0  0  0  0
 33 34  1  0  0  0  0
 33 72  1  0  0  0  0
 35 36  1  0  0  0  0
 35 40  2  0  0  0  0
 36 37  2  0  0  0  0
 36 73  1  0  0  0  0
 37 38  1  0  0  0  0
 37 74  1  0  0  0  0
 38 39  2  0  0  0  0
 38 75  1  0  0  0  0
 39 40  1  0  0  0  0
 39 76  1  0  0  0  0
 40 77  1  0  0  0  0
M  END
$$$$
