CHEMBL389299
 OpenBabel04072215373D

 45 48  0  0  0  0  0  0  0  0999 V2000
   -4.0559    1.7545   -3.8879 C   0  0  0  0  0  0  0  0  0  0  0  0
   -4.2550    1.5592   -2.4133 C   0  0  0  0  0  0  0  0  0  0  0  0
   -4.7243    2.6050   -1.6110 C   0  0  0  0  0  0  0  0  0  0  0  0
   -5.0042    2.3856   -0.2639 C   0  0  0  0  0  0  0  0  0  0  0  0
   -4.8209    1.1180    0.2882 C   0  0  0  0  0  0  0  0  0  0  0  0
   -4.3016    0.0766   -0.4868 C   0  0  0  0  0  0  0  0  0  0  0  0
   -4.2205   -1.1969    0.1078 N   0  0  0  0  0  0  0  0  0  0  0  0
   -3.4583   -2.2955   -0.2345 C   0  0  0  0  0  0  0  0  0  0  0  0
   -1.8667   -2.2719   -0.7307 S   0  0  0  0  0  0  0  0  0  0  0  0
   -4.0768   -3.5048    0.0295 N   0  0  0  0  0  0  0  0  0  0  0  0
   -5.4548   -3.7566   -0.1466 C   0  0  0  0  0  0  0  0  0  0  0  0
   -6.2221   -2.9574   -0.9943 C   0  0  0  0  0  0  0  0  0  0  0  0
   -7.6042   -3.0864   -1.0391 C   0  0  0  0  0  0  0  0  0  0  0  0
   -8.2511   -4.0664   -0.2799 C   0  0  0  0  0  0  0  0  0  0  0  0
   -9.7186   -4.0787   -0.2197 C   0  0  0  0  0  0  0  0  0  0  0  0
  -10.4396   -3.7729   -1.3625 C   0  0  0  0  0  0  0  0  0  0  0  0
  -12.1139   -3.7225   -1.1136 S   0  0  0  0  0  0  0  0  0  0  0  0
  -11.9438   -4.1350    0.5454 C   0  0  0  0  0  0  0  0  0  0  0  0
  -13.0043   -4.2921    1.4433 C   0  0  0  0  0  0  0  0  0  0  0  0
  -12.6618   -4.6177    2.7309 C   0  0  0  0  0  0  0  0  0  0  0  0
  -11.3957   -4.7567    3.1587 N   0  0  0  0  0  0  0  0  0  0  0  0
  -10.3642   -4.5835    2.3030 C   0  0  0  0  0  0  0  0  0  0  0  0
   -9.1163   -4.6872    2.9060 N   0  0  0  0  0  0  0  0  0  0  0  0
  -10.6038   -4.2852    0.9275 C   0  0  0  0  0  0  0  0  0  0  0  0
   -7.4577   -4.9857    0.4207 C   0  0  0  0  0  0  0  0  0  0  0  0
   -6.0631   -4.8249    0.5039 C   0  0  0  0  0  0  0  0  0  0  0  0
   -4.0258    0.2983   -1.8379 C   0  0  0  0  0  0  0  0  0  0  0  0
   -4.1723    2.8065   -4.1719 H   0  0  0  0  0  0  0  0  0  0  0  0
   -4.8017    1.1735   -4.4443 H   0  0  0  0  0  0  0  0  0  0  0  0
   -3.0566    1.4326   -4.1850 H   0  0  0  0  0  0  0  0  0  0  0  0
   -4.8890    3.5935   -2.0338 H   0  0  0  0  0  0  0  0  0  0  0  0
   -5.3758    3.1991    0.3538 H   0  0  0  0  0  0  0  0  0  0  0  0
   -5.0692    0.9602    1.3341 H   0  0  0  0  0  0  0  0  0  0  0  0
   -4.8022   -1.3389    0.9239 H   0  0  0  0  0  0  0  0  0  0  0  0
   -3.4712   -4.2926    0.2314 H   0  0  0  0  0  0  0  0  0  0  0  0
   -5.7611   -2.2104   -1.6347 H   0  0  0  0  0  0  0  0  0  0  0  0
   -8.1547   -2.3842   -1.6599 H   0  0  0  0  0  0  0  0  0  0  0  0
  -10.0613   -3.5527   -2.3520 H   0  0  0  0  0  0  0  0  0  0  0  0
  -14.0382   -4.1657    1.1431 H   0  0  0  0  0  0  0  0  0  0  0  0
  -13.4210   -4.7727    3.4899 H   0  0  0  0  0  0  0  0  0  0  0  0
   -9.2517   -4.7046    3.9116 H   0  0  0  0  0  0  0  0  0  0  0  0
   -8.4640   -3.9863    2.5792 H   0  0  0  0  0  0  0  0  0  0  0  0
   -7.9193   -5.8133    0.9588 H   0  0  0  0  0  0  0  0  0  0  0  0
   -5.4902   -5.5046    1.1309 H   0  0  0  0  0  0  0  0  0  0  0  0
   -3.7022   -0.5194   -2.4768 H   0  0  0  0  0  0  0  0  0  0  0  0
  1  2  1  0  0  0  0
  1 28  1  0  0  0  0
  1 29  1  0  0  0  0
  1 30  1  0  0  0  0
  2  3  1  0  0  0  0
  2 27  2  0  0  0  0
  3  4  2  0  0  0  0
  3 31  1  0  0  0  0
  4  5  1  0  0  0  0
  4 32  1  0  0  0  0
  5  6  2  0  0  0  0
  5 33  1  0  0  0  0
  6  7  1  0  0  0  0
  6 27  1  0  0  0  0
  7  8  1  0  0  0  0
  7 34  1  0  0  0  0
  8  9  2  0  0  0  0
  8 10  1  0  0  0  0
 10 11  1  0  0  0  0
 10 35  1  0  0  0  0
 11 12  1  0  0  0  0
 11 26  2  0  0  0  0
 12 13  2  0  0  0  0
 12 36  1  0  0  0  0
 13 14  1  0  0  0  0
 13 37  1  0  0  0  0
 14 15  1  0  0  0  0
 14 25  2  0  0  0  0
 15 16  2  0  0  0  0
 15 24  1  0  0  0  0
 16 17  1  0  0  0  0
 16 38  1  0  0  0  0
 17 18  1  0  0  0  0
 18 19  1  0  0  0  0
 18 24  2  0  0  0  0
 19 20  2  0  0  0  0
 19 39  1  0  0  0  0
 20 21  1  0  0  0  0
 20 40  1  0  0  0  0
 21 22  2  0  0  0  0
 22 23  1  0  0  0  0
 22 24  1  0  0  0  0
 23 41  1  0  0  0  0
 23 42  1  0  0  0  0
 25 26  1  0  0  0  0
 25 43  1  0  0  0  0
 26 44  1  0  0  0  0
 27 45  1  0  0  0  0
M  END
$$$$
