CHEMBL223790
 OpenBabel04072215363D

 65 69  0  0  0  0  0  0  0  0999 V2000
    2.4163   -0.1236   -0.5237 C   0  0  0  0  0  0  0  0  0  0  0  0
    0.9181   -0.0426   -0.6377 C   0  0  0  0  0  0  0  0  0  0  0  0
    0.3250    1.1838   -0.9681 C   0  0  0  0  0  0  0  0  0  0  0  0
   -1.0493    1.2793   -1.0779 C   0  0  0  0  0  0  0  0  0  0  0  0
   -1.8530    0.1589   -0.8570 C   0  0  0  0  0  0  0  0  0  0  0  0
   -1.2910   -1.0841   -0.5342 C   0  0  0  0  0  0  0  0  0  0  0  0
   -2.0754   -2.2480   -0.3048 N   0  0  0  0  0  0  0  0  0  0  0  0
   -3.4457   -2.3360   -0.4597 C   0  0  0  0  0  0  0  0  0  0  0  0
   -4.1652   -1.4247   -0.8688 O   0  0  0  0  0  0  0  0  0  0  0  0
   -3.9643   -3.5642   -0.0779 N   0  0  0  0  0  0  0  0  0  0  0  0
   -5.3602   -3.7804   -0.1813 C   0  0  0  0  0  0  0  0  0  0  0  0
   -6.0574   -3.4665   -1.3517 C   0  0  0  0  0  0  0  0  0  0  0  0
   -7.4603   -3.5317   -1.3914 C   0  0  0  0  0  0  0  0  0  0  0  0
   -8.2016   -3.9327   -0.2750 C   0  0  0  0  0  0  0  0  0  0  0  0
   -9.6818   -3.9468   -0.2872 C   0  0  0  0  0  0  0  0  0  0  0  0
  -10.4208   -4.2630   -1.4590 C   0  0  0  0  0  0  0  0  0  0  0  0
  -11.8142   -4.3732   -1.4600 C   0  0  0  0  0  0  0  0  0  0  0  0
  -12.5482   -4.2694   -0.2772 C   0  0  0  0  0  0  0  0  0  0  0  0
  -13.8976   -4.4350   -0.1512 O   0  0  0  0  0  0  0  0  0  0  0  0
  -14.5067   -5.2238   -1.1771 C   0  0  0  0  0  0  0  0  0  0  0  0
  -15.7596   -5.9079   -0.6063 C   0  0  0  0  0  0  0  0  0  0  0  0
  -16.4154   -6.8011   -1.5787 N   0  0  0  0  0  0  0  0  0  0  0  0
  -17.6412   -7.3968   -1.0202 C   0  0  0  0  0  0  0  0  0  0  0  0
  -17.1688   -8.6454   -0.3027 C   0  0  0  0  0  0  0  0  0  0  0  0
  -16.0902   -9.1755   -1.2248 C   0  0  0  0  0  0  0  0  0  0  0  0
  -15.5719   -7.9501   -1.9631 C   0  0  0  0  0  0  0  0  0  0  0  0
  -11.8220   -3.9394    0.8628 C   0  0  0  0  0  0  0  0  0  0  0  0
  -12.2272   -3.8285    2.1657 N   0  0  0  0  0  0  0  0  0  0  0  0
  -11.3043   -3.3108    2.9864 N   0  0  0  0  0  0  0  0  0  0  0  0
  -10.2376   -3.1748    2.2041 C   0  0  0  0  0  0  0  0  0  0  0  0
   -9.1099   -2.5950    2.6400 N   0  0  0  0  0  0  0  0  0  0  0  0
  -10.4511   -3.6872    0.8840 C   0  0  0  0  0  0  0  0  0  0  0  0
   -7.4639   -4.3471    0.8538 C   0  0  0  0  0  0  0  0  0  0  0  0
   -6.0668   -4.2576    0.9151 C   0  0  0  0  0  0  0  0  0  0  0  0
    0.1073   -1.1722   -0.4247 C   0  0  0  0  0  0  0  0  0  0  0  0
    2.8811    0.8527   -0.7060 H   0  0  0  0  0  0  0  0  0  0  0  0
    2.8156   -0.8235   -1.2648 H   0  0  0  0  0  0  0  0  0  0  0  0
    2.7034   -0.4428    0.4796 H   0  0  0  0  0  0  0  0  0  0  0  0
    0.9306    2.0685   -1.1379 H   0  0  0  0  0  0  0  0  0  0  0  0
   -1.5217    2.2259   -1.3347 H   0  0  0  0  0  0  0  0  0  0  0  0
   -2.9190    0.3062   -0.9522 H   0  0  0  0  0  0  0  0  0  0  0  0
   -1.5841   -3.1080   -0.1297 H   0  0  0  0  0  0  0  0  0  0  0  0
   -3.5084   -3.9722    0.7253 H   0  0  0  0  0  0  0  0  0  0  0  0
   -5.5233   -3.1282   -2.2362 H   0  0  0  0  0  0  0  0  0  0  0  0
   -7.9495   -3.2319   -2.3155 H   0  0  0  0  0  0  0  0  0  0  0  0
   -9.9012   -4.4452   -2.3948 H   0  0  0  0  0  0  0  0  0  0  0  0
  -12.3047   -4.5755   -2.4100 H   0  0  0  0  0  0  0  0  0  0  0  0
  -13.8040   -5.9872   -1.5169 H   0  0  0  0  0  0  0  0  0  0  0  0
  -14.7759   -4.5797   -2.0220 H   0  0  0  0  0  0  0  0  0  0  0  0
  -16.4602   -5.1171   -0.3076 H   0  0  0  0  0  0  0  0  0  0  0  0
  -15.4936   -6.4339    0.3200 H   0  0  0  0  0  0  0  0  0  0  0  0
  -18.3027   -7.6744   -1.8507 H   0  0  0  0  0  0  0  0  0  0  0  0
  -18.2064   -6.7206   -0.3701 H   0  0  0  0  0  0  0  0  0  0  0  0
  -17.9691   -9.3747   -0.1461 H   0  0  0  0  0  0  0  0  0  0  0  0
  -16.7407   -8.3954    0.6743 H   0  0  0  0  0  0  0  0  0  0  0  0
  -16.5143   -9.8874   -1.9422 H   0  0  0  0  0  0  0  0  0  0  0  0
  -15.2980   -9.6826   -0.6660 H   0  0  0  0  0  0  0  0  0  0  0  0
  -15.6532   -8.0977   -3.0462 H   0  0  0  0  0  0  0  0  0  0  0  0
  -14.5071   -7.8252   -1.7517 H   0  0  0  0  0  0  0  0  0  0  0  0
  -13.1325   -4.0841    2.5417 H   0  0  0  0  0  0  0  0  0  0  0  0
   -9.1392   -2.1170    3.5323 H   0  0  0  0  0  0  0  0  0  0  0  0
   -8.4380   -2.2130    1.9813 H   0  0  0  0  0  0  0  0  0  0  0  0
   -7.9797   -4.7101    1.7427 H   0  0  0  0  0  0  0  0  0  0  0  0
   -5.5682   -4.4828    1.8537 H   0  0  0  0  0  0  0  0  0  0  0  0
    0.5771   -2.1162   -0.1741 H   0  0  0  0  0  0  0  0  0  0  0  0
  1  2  1  0  0  0  0
  1 36  1  0  0  0  0
  1 37  1  0  0  0  0
  1 38  1  0  0  0  0
  2  3  1  0  0  0  0
  2 35  2  0  0  0  0
  3  4  2  0  0  0  0
  3 39  1  0  0  0  0
  4  5  1  0  0  0  0
  4 40  1  0  0  0  0
  5  6  2  0  0  0  0
  5 41  1  0  0  0  0
  6  7  1  0  0  0  0
  6 35  1  0  0  0  0
  7  8  1  0  0  0  0
  7 42  1  0  0  0  0
  8  9  2  0  0  0  0
  8 10  1  0  0  0  0
 10 11  1  0  0  0  0
 10 43  1  0  0  0  0
 11 12  1  0  0  0  0
 11 34  2  0  0  0  0
 12 13  2  0  0  0  0
 12 44  1  0  0  0  0
 13 14  1  0  0  0  0
 13 45  1  0  0  0  0
 14 15  1  0  0  0  0
 14 33  2  0  0  0  0
 15 16  1  0  0  0  0
 15 32  2  0  0  0  0
 16 17  2  0  0  0  0
 16 46  1  0  0  0  0
 17 18  1  0  0  0  0
 17 47  1  0  0  0  0
 18 19  1  0  0  0  0
 18 27  2  0  0  0  0
 19 20  1  0  0  0  0
 20 21  1  0  0  0  0
 20 48  1  0  0  0  0
 20 49  1  0  0  0  0
 21 22  1  0  0  0  0
 21 50  1  0  0  0  0
 21 51  1  0  0  0  0
 22 23  1  0  0  0  0
 22 26  1  0  0  0  0
 23 24  1  0  0  0  0
 23 52  1  0  0  0  0
 23 53  1  0  0  0  0
 24 25  1  0  0  0  0
 24 54  1  0  0  0  0
 24 55  1  0  0  0  0
 25 26  1  0  0  0  0
 25 56  1  0  0  0  0
 25 57  1  0  0  0  0
 26 58  1  0  0  0  0
 26 59  1  0  0  0  0
 27 28  1  0  0  0  0
 27 32  1  0  0  0  0
 28 29  1  0  0  0  0
 28 60  1  0  0  0  0
 29 30  2  0  0  0  0
 30 31  1  0  0  0  0
 30 32  1  0  0  0  0
 31 61  1  0  0  0  0
 31 62  1  0  0  0  0
 33 34  1  0  0  0  0
 33 63  1  0  0  0  0
 34 64  1  0  0  0  0
 35 65  1  0  0  0  0
M  END
$$$$
