CHEMBL3690509
 OpenBabel04072215373D

 46 50  0  0  0  0  0  0  0  0999 V2000
   -2.6401    1.2270    0.8634 C   0  0  0  0  0  0  0  0  0  0  0  0
   -1.4508    1.4279    0.0200 C   0  0  0  0  0  0  0  0  0  0  0  0
   -1.2609    1.1263   -1.2412 N   0  0  0  0  0  0  0  0  0  0  0  0
    0.0181    1.5328   -1.5393 N   0  0  0  0  0  0  0  0  0  0  0  0
    0.5555    2.0622   -0.4457 C   0  0  0  0  0  0  0  0  0  0  0  0
    1.8848    2.5988   -0.3373 C   0  0  0  0  0  0  0  0  0  0  0  0
    2.8065    2.6269   -1.4793 C   0  0  0  0  0  0  0  0  0  0  0  0
    4.0467    3.1197   -1.3396 C   0  0  0  0  0  0  0  0  0  0  0  0
    4.4563    3.6437   -0.1102 N   0  0  0  0  0  0  0  0  0  0  0  0
    5.6425    4.2734    0.2772 C   0  0  0  0  0  0  0  0  0  0  0  0
    6.7671    4.6617   -0.5957 C   0  0  0  0  0  0  0  0  0  0  0  0
    6.5259    5.0727   -1.9145 C   0  0  0  0  0  0  0  0  0  0  0  0
    7.5707    5.4033   -2.7678 C   0  0  0  0  0  0  0  0  0  0  0  0
    8.8731    5.4254   -2.2899 C   0  0  0  0  0  0  0  0  0  0  0  0
    9.1493    5.1469   -0.9494 C   0  0  0  0  0  0  0  0  0  0  0  0
   10.4522    5.3153   -0.4063 N   0  0  0  0  0  0  0  0  0  0  0  0
   11.4472    6.0881   -0.9885 C   0  0  0  0  0  0  0  0  0  0  0  0
   11.3397    6.7501   -2.0140 O   0  0  0  0  0  0  0  0  0  0  0  0
   12.6376    6.0608   -0.2829 N   0  0  0  0  0  0  0  0  0  0  0  0
   13.7443    6.8680   -0.7105 C   0  0  0  0  0  0  0  0  0  0  0  0
   14.7760    6.3030   -1.6498 C   0  0  0  0  0  0  0  0  0  0  0  0
   15.1469    6.6252   -0.2323 C   0  0  0  0  0  0  0  0  0  0  0  0
    8.0973    4.7117   -0.1187 C   0  0  0  0  0  0  0  0  0  0  0  0
    5.4670    4.4840    1.6378 C   0  0  0  0  0  0  0  0  0  0  0  0
    4.2347    4.0769    2.0769 N   0  0  0  0  0  0  0  0  0  0  0  0
    3.6275    3.6042    1.0122 C   0  0  0  0  0  0  0  0  0  0  0  0
    2.3099    3.0711    0.8589 C   0  0  0  0  0  0  0  0  0  0  0  0
   -0.3629    2.0181    0.5966 O   0  0  0  0  0  0  0  0  0  0  0  0
   -3.4156    0.6849    0.3141 H   0  0  0  0  0  0  0  0  0  0  0  0
   -3.0534    2.1902    1.1763 H   0  0  0  0  0  0  0  0  0  0  0  0
   -2.3874    0.6486    1.7568 H   0  0  0  0  0  0  0  0  0  0  0  0
    2.4609    2.2341   -2.4324 H   0  0  0  0  0  0  0  0  0  0  0  0
    4.7473    3.1193   -2.1624 H   0  0  0  0  0  0  0  0  0  0  0  0
    5.5169    5.1627   -2.3041 H   0  0  0  0  0  0  0  0  0  0  0  0
    7.3710    5.6744   -3.8019 H   0  0  0  0  0  0  0  0  0  0  0  0
    9.6579    5.6866   -2.9931 H   0  0  0  0  0  0  0  0  0  0  0  0
   10.5864    5.0443    0.5539 H   0  0  0  0  0  0  0  0  0  0  0  0
   12.6712    5.6350    0.6297 H   0  0  0  0  0  0  0  0  0  0  0  0
   13.4623    7.9071   -0.8797 H   0  0  0  0  0  0  0  0  0  0  0  0
   15.1376    6.9508   -2.4409 H   0  0  0  0  0  0  0  0  0  0  0  0
   14.6972    5.2611   -1.9366 H   0  0  0  0  0  0  0  0  0  0  0  0
   15.7788    7.4915   -0.0674 H   0  0  0  0  0  0  0  0  0  0  0  0
   15.3415    5.7974    0.4363 H   0  0  0  0  0  0  0  0  0  0  0  0
    8.3041    4.4451    0.9136 H   0  0  0  0  0  0  0  0  0  0  0  0
    6.1628    4.9511    2.3233 H   0  0  0  0  0  0  0  0  0  0  0  0
    1.6797    3.0650    1.7428 H   0  0  0  0  0  0  0  0  0  0  0  0
  1  2  1  0  0  0  0
  1 29  1  0  0  0  0
  1 30  1  0  0  0  0
  1 31  1  0  0  0  0
  2  3  2  0  0  0  0
  2 28  1  0  0  0  0
  3  4  1  0  0  0  0
  4  5  2  0  0  0  0
  5  6  1  0  0  0  0
  5 28  1  0  0  0  0
  6  7  1  0  0  0  0
  6 27  2  0  0  0  0
  7  8  2  0  0  0  0
  7 32  1  0  0  0  0
  8  9  1  0  0  0  0
  8 33  1  0  0  0  0
  9 10  1  0  0  0  0
  9 26  1  0  0  0  0
 10 11  1  0  0  0  0
 10 24  2  0  0  0  0
 11 12  1  0  0  0  0
 11 23  2  0  0  0  0
 12 13  2  0  0  0  0
 12 34  1  0  0  0  0
 13 14  1  0  0  0  0
 13 35  1  0  0  0  0
 14 15  2  0  0  0  0
 14 36  1  0  0  0  0
 15 16  1  0  0  0  0
 15 23  1  0  0  0  0
 16 17  1  0  0  0  0
 16 37  1  0  0  0  0
 17 18  2  0  0  0  0
 17 19  1  0  0  0  0
 19 20  1  0  0  0  0
 19 38  1  0  0  0  0
 20 21  1  0  0  0  0
 20 22  1  0  0  0  0
 20 39  1  0  0  0  0
 21 22  1  0  0  0  0
 21 40  1  0  0  0  0
 21 41  1  0  0  0  0
 22 42  1  0  0  0  0
 22 43  1  0  0  0  0
 23 44  1  0  0  0  0
 24 25  1  0  0  0  0
 24 45  1  0  0  0  0
 25 26  2  0  0  0  0
 26 27  1  0  0  0  0
 27 46  1  0  0  0  0
M  END
$$$$
