CHEMBL179311
 OpenBabel04072215363D

 47 49  0  0  0  0  0  0  0  0999 V2000
    1.1858    2.4476    1.2291 C   0  0  0  0  0  0  0  0  0  0  0  0
    2.6808    2.2648    1.0393 C   0  0  0  0  0  0  0  0  0  0  0  0
    3.2287    0.6994    1.6857 S   0  0  0  0  0  0  0  0  0  0  0  0
    2.9186    0.6490    3.1061 O   0  0  0  0  0  0  0  0  0  0  0  0
    2.7709   -0.3485    0.7963 O   0  0  0  0  0  0  0  0  0  0  0  0
    4.9988    0.7752    1.5421 C   0  0  0  0  0  0  0  0  0  0  0  0
    5.6402    0.2417    0.4264 C   0  0  0  0  0  0  0  0  0  0  0  0
    7.0390    0.2123    0.3842 C   0  0  0  0  0  0  0  0  0  0  0  0
    7.7954    0.7154    1.4528 C   0  0  0  0  0  0  0  0  0  0  0  0
    9.1681    0.6638    1.5156 O   0  0  0  0  0  0  0  0  0  0  0  0
    9.8614    0.5333    0.2783 C   0  0  0  0  0  0  0  0  0  0  0  0
    7.1406    1.2927    2.5636 C   0  0  0  0  0  0  0  0  0  0  0  0
    7.8786    1.8311    3.6416 N   0  0  0  0  0  0  0  0  0  0  0  0
    7.4983    2.9311    4.3172 C   0  0  0  0  0  0  0  0  0  0  0  0
    6.7436    3.9371    3.9231 N   0  0  0  0  0  0  0  0  0  0  0  0
    6.6888    4.7622    5.0157 C   0  0  0  0  0  0  0  0  0  0  0  0
    7.3997    4.2186    6.0617 C   0  0  0  0  0  0  0  0  0  0  0  0
    7.6704    4.5930    7.4443 C   0  0  0  0  0  0  0  0  0  0  0  0
    8.4738    3.7870    8.2615 C   0  0  0  0  0  0  0  0  0  0  0  0
    8.7161    4.1330    9.5911 C   0  0  0  0  0  0  0  0  0  0  0  0
    8.1638    5.2952   10.1278 C   0  0  0  0  0  0  0  0  0  0  0  0
    7.3741    6.1239    9.3316 C   0  0  0  0  0  0  0  0  0  0  0  0
    6.8001    7.3006    9.7319 O   0  0  0  0  0  0  0  0  0  0  0  0
    7.0263    7.6990   11.0807 C   0  0  0  0  0  0  0  0  0  0  0  0
    7.1276    5.7651    7.9985 C   0  0  0  0  0  0  0  0  0  0  0  0
    7.9399    3.0386    5.6057 O   0  0  0  0  0  0  0  0  0  0  0  0
    5.7379    1.2921    2.6025 C   0  0  0  0  0  0  0  0  0  0  0  0
    0.8603    3.4007    0.8027 H   0  0  0  0  0  0  0  0  0  0  0  0
    0.9192    2.4420    2.2917 H   0  0  0  0  0  0  0  0  0  0  0  0
    0.6240    1.6435    0.7421 H   0  0  0  0  0  0  0  0  0  0  0  0
    3.2245    3.0573    1.5640 H   0  0  0  0  0  0  0  0  0  0  0  0
    2.9373    2.2904   -0.0213 H   0  0  0  0  0  0  0  0  0  0  0  0
    5.0681   -0.1788   -0.3979 H   0  0  0  0  0  0  0  0  0  0  0  0
    7.5094   -0.2359   -0.4852 H   0  0  0  0  0  0  0  0  0  0  0  0
   10.9331    0.6144    0.4853 H   0  0  0  0  0  0  0  0  0  0  0  0
    9.5922    1.3403   -0.4119 H   0  0  0  0  0  0  0  0  0  0  0  0
    9.6928   -0.4477   -0.1774 H   0  0  0  0  0  0  0  0  0  0  0  0
    8.4273    1.1343    4.1317 H   0  0  0  0  0  0  0  0  0  0  0  0
    6.1363    5.6907    4.9896 H   0  0  0  0  0  0  0  0  0  0  0  0
    8.9183    2.8745    7.8704 H   0  0  0  0  0  0  0  0  0  0  0  0
    9.3389    3.4927   10.2107 H   0  0  0  0  0  0  0  0  0  0  0  0
    8.3715    5.5236   11.1667 H   0  0  0  0  0  0  0  0  0  0  0  0
    6.6200    8.7069   11.2088 H   0  0  0  0  0  0  0  0  0  0  0  0
    8.0949    7.7482   11.3164 H   0  0  0  0  0  0  0  0  0  0  0  0
    6.5004    7.0325   11.7725 H   0  0  0  0  0  0  0  0  0  0  0  0
    6.4988    6.4211    7.4001 H   0  0  0  0  0  0  0  0  0  0  0  0
    5.2241    1.6779    3.4823 H   0  0  0  0  0  0  0  0  0  0  0  0
  1  2  1  0  0  0  0
  1 28  1  0  0  0  0
  1 29  1  0  0  0  0
  1 30  1  0  0  0  0
  2  3  1  0  0  0  0
  2 31  1  0  0  0  0
  2 32  1  0  0  0  0
  3  4  2  0  0  0  0
  3  5  2  0  0  0  0
  3  6  1  0  0  0  0
  6  7  1  0  0  0  0
  6 27  2  0  0  0  0
  7  8  2  0  0  0  0
  7 33  1  0  0  0  0
  8  9  1  0  0  0  0
  8 34  1  0  0  0  0
  9 10  1  0  0  0  0
  9 12  2  0  0  0  0
 10 11  1  0  0  0  0
 11 35  1  0  0  0  0
 11 36  1  0  0  0  0
 11 37  1  0  0  0  0
 12 13  1  0  0  0  0
 12 27  1  0  0  0  0
 13 14  1  0  0  0  0
 13 38  1  0  0  0  0
 14 15  2  0  0  0  0
 14 26  1  0  0  0  0
 15 16  1  0  0  0  0
 16 17  2  0  0  0  0
 16 39  1  0  0  0  0
 17 18  1  0  0  0  0
 17 26  1  0  0  0  0
 18 19  1  0  0  0  0
 18 25  2  0  0  0  0
 19 20  2  0  0  0  0
 19 40  1  0  0  0  0
 20 21  1  0  0  0  0
 20 41  1  0  0  0  0
 21 22  2  0  0  0  0
 21 42  1  0  0  0  0
 22 23  1  0  0  0  0
 22 25  1  0  0  0  0
 23 24  1  0  0  0  0
 24 43  1  0  0  0  0
 24 44  1  0  0  0  0
 24 45  1  0  0  0  0
 25 46  1  0  0  0  0
 27 47  1  0  0  0  0
M  END
$$$$
