CHEMBL3754536
 OpenBabel04072215373D

 61 65  0  0  0  0  0  0  0  0999 V2000
    4.2022    9.0971   -8.5665 C   0  0  0  0  0  0  0  0  0  0  0  0
    5.2662    8.3930   -7.9326 O   0  0  0  0  0  0  0  0  0  0  0  0
    4.9032    7.3621   -7.1046 C   0  0  0  0  0  0  0  0  0  0  0  0
    3.5898    6.9491   -6.8771 C   0  0  0  0  0  0  0  0  0  0  0  0
    3.3355    5.8877   -6.0189 C   0  0  0  0  0  0  0  0  0  0  0  0
    4.3909    5.2381   -5.3810 C   0  0  0  0  0  0  0  0  0  0  0  0
    5.7174    5.6334   -5.5850 C   0  0  0  0  0  0  0  0  0  0  0  0
    6.8131    5.0063   -4.9436 N   0  0  0  0  0  0  0  0  0  0  0  0
    6.7362    3.9687   -4.0428 C   0  0  0  0  0  0  0  0  0  0  0  0
    5.7027    3.3924   -3.6865 O   0  0  0  0  0  0  0  0  0  0  0  0
    8.0535    3.4215   -3.5157 C   0  0  0  0  0  0  0  0  0  0  0  0
    9.1851    4.3707   -3.4075 N   0  0  0  0  0  0  0  0  0  0  0  0
   10.3714    3.6115   -2.9330 C   0  0  0  0  0  0  0  0  0  0  0  0
   10.2315    3.0588   -1.5007 C   0  0  0  0  0  0  0  0  0  0  0  0
    9.9470    4.1089   -0.5177 N   0  0  0  0  0  0  0  0  0  0  0  0
   10.5193    4.0464    0.7537 C   0  0  0  0  0  0  0  0  0  0  0  0
   10.9512    5.1831    1.3444 N   0  0  0  0  0  0  0  0  0  0  0  0
   11.7818    5.1529    2.4671 N   0  0  0  0  0  0  0  0  0  0  0  0
   12.2645    3.9851    2.9532 C   0  0  0  0  0  0  0  0  0  0  0  0
   13.1320    4.0968    4.1653 C   0  0  0  0  0  0  0  0  0  0  0  0
   13.1331    3.1224    5.1881 C   0  0  0  0  0  0  0  0  0  0  0  0
   13.9958    3.1906    6.2881 C   0  0  0  0  0  0  0  0  0  0  0  0
   14.8385    4.2835    6.4371 C   0  0  0  0  0  0  0  0  0  0  0  0
   14.8135    5.3000    5.4879 C   0  0  0  0  0  0  0  0  0  0  0  0
   13.9770    5.2046    4.3651 C   0  0  0  0  0  0  0  0  0  0  0  0
   11.8711    2.7701    2.3518 C   0  0  0  0  0  0  0  0  0  0  0  0
   12.4349    1.4959    2.6437 C   0  0  0  0  0  0  0  0  0  0  0  0
   11.8969    0.3058    2.1589 C   0  0  0  0  0  0  0  0  0  0  0  0
   10.7413    0.3498    1.4031 C   0  0  0  0  0  0  0  0  0  0  0  0
   10.2290    1.5867    1.0375 C   0  0  0  0  0  0  0  0  0  0  0  0
   10.8582    2.8117    1.3656 C   0  0  0  0  0  0  0  0  0  0  0  0
    9.0410    5.1982   -0.8971 C   0  0  0  0  0  0  0  0  0  0  0  0
    8.9870    5.4791   -2.4352 C   0  0  0  0  0  0  0  0  0  0  0  0
    5.9625    6.7012   -6.4591 C   0  0  0  0  0  0  0  0  0  0  0  0
    4.6367    9.8740   -9.2007 H   0  0  0  0  0  0  0  0  0  0  0  0
    3.5609    9.5894   -7.8263 H   0  0  0  0  0  0  0  0  0  0  0  0
    3.6172    8.4319   -9.2119 H   0  0  0  0  0  0  0  0  0  0  0  0
    2.7394    7.4277   -7.3498 H   0  0  0  0  0  0  0  0  0  0  0  0
    2.3161    5.5568   -5.8395 H   0  0  0  0  0  0  0  0  0  0  0  0
    4.1242    4.4186   -4.7244 H   0  0  0  0  0  0  0  0  0  0  0  0
    7.7494    5.3545   -5.1339 H   0  0  0  0  0  0  0  0  0  0  0  0
    8.3325    2.6224   -4.2181 H   0  0  0  0  0  0  0  0  0  0  0  0
    7.8145    2.9584   -2.5556 H   0  0  0  0  0  0  0  0  0  0  0  0
   11.2567    4.2565   -2.9802 H   0  0  0  0  0  0  0  0  0  0  0  0
   10.5740    2.7727   -3.6112 H   0  0  0  0  0  0  0  0  0  0  0  0
   11.1623    2.5274   -1.2720 H   0  0  0  0  0  0  0  0  0  0  0  0
    9.4240    2.3211   -1.4759 H   0  0  0  0  0  0  0  0  0  0  0  0
   12.4508    2.2755    5.1491 H   0  0  0  0  0  0  0  0  0  0  0  0
   13.9978    2.3927    7.0270 H   0  0  0  0  0  0  0  0  0  0  0  0
   15.4999    4.3479    7.2976 H   0  0  0  0  0  0  0  0  0  0  0  0
   15.4480    6.1733    5.6184 H   0  0  0  0  0  0  0  0  0  0  0  0
   13.9884    6.0168    3.6404 H   0  0  0  0  0  0  0  0  0  0  0  0
   13.3392    1.4184    3.2470 H   0  0  0  0  0  0  0  0  0  0  0  0
   12.3594   -0.6458    2.4010 H   0  0  0  0  0  0  0  0  0  0  0  0
   10.2600   -0.5648    1.0687 H   0  0  0  0  0  0  0  0  0  0  0  0
    9.3013    1.5971    0.4628 H   0  0  0  0  0  0  0  0  0  0  0  0
    9.3233    6.1380   -0.4060 H   0  0  0  0  0  0  0  0  0  0  0  0
    8.0316    4.9427   -0.5563 H   0  0  0  0  0  0  0  0  0  0  0  0
    9.7939    6.1952   -2.6505 H   0  0  0  0  0  0  0  0  0  0  0  0
    8.0696    6.0294   -2.6699 H   0  0  0  0  0  0  0  0  0  0  0  0
    6.9781    7.0385   -6.6499 H   0  0  0  0  0  0  0  0  0  0  0  0
  1  2  1  0  0  0  0
  1 35  1  0  0  0  0
  1 36  1  0  0  0  0
  1 37  1  0  0  0  0
  2  3  1  0  0  0  0
  3  4  1  0  0  0  0
  3 34  2  0  0  0  0
  4  5  2  0  0  0  0
  4 38  1  0  0  0  0
  5  6  1  0  0  0  0
  5 39  1  0  0  0  0
  6  7  2  0  0  0  0
  6 40  1  0  0  0  0
  7  8  1  0  0  0  0
  7 34  1  0  0  0  0
  8  9  1  0  0  0  0
  8 41  1  0  0  0  0
  9 10  2  0  0  0  0
  9 11  1  0  0  0  0
 11 12  1  0  0  0  0
 11 42  1  0  0  0  0
 11 43  1  0  0  0  0
 12 13  1  0  0  0  0
 12 33  1  0  0  0  0
 13 14  1  0  0  0  0
 13 44  1  0  0  0  0
 13 45  1  0  0  0  0
 14 15  1  0  0  0  0
 14 46  1  0  0  0  0
 14 47  1  0  0  0  0
 15 16  1  0  0  0  0
 15 32  1  0  0  0  0
 16 17  1  0  0  0  0
 16 31  2  0  0  0  0
 17 18  2  0  0  0  0
 18 19  1  0  0  0  0
 19 20  1  0  0  0  0
 19 26  2  0  0  0  0
 20 21  1  0  0  0  0
 20 25  2  0  0  0  0
 21 22  2  0  0  0  0
 21 48  1  0  0  0  0
 22 23  1  0  0  0  0
 22 49  1  0  0  0  0
 23 24  2  0  0  0  0
 23 50  1  0  0  0  0
 24 25  1  0  0  0  0
 24 51  1  0  0  0  0
 25 52  1  0  0  0  0
 26 27  1  0  0  0  0
 26 31  1  0  0  0  0
 27 28  2  0  0  0  0
 27 53  1  0  0  0  0
 28 29  1  0  0  0  0
 28 54  1  0  0  0  0
 29 30  2  0  0  0  0
 29 55  1  0  0  0  0
 30 31  1  0  0  0  0
 30 56  1  0  0  0  0
 32 33  1  0  0  0  0
 32 57  1  0  0  0  0
 32 58  1  0  0  0  0
 33 59  1  0  0  0  0
 33 60  1  0  0  0  0
 34 61  1  0  0  0  0
M  END
$$$$
