CHEMBL3945421
 OpenBabel04072215373D

 70 74  0  0  1  0  0  0  0  0999 V2000
    2.1394   -0.2462   -2.7505 C   0  0  0  0  0  0  0  0  0  0  0  0
    1.7614   -0.1402   -1.2701 C   0  0  1  0  0  0  0  0  0  0  0  0
    2.8073   -0.7787   -0.4476 N   0  0  0  0  0  0  0  0  0  0  0  0
    2.5831   -2.1474   -0.2025 C   0  0  0  0  0  0  0  0  0  0  0  0
    1.3212   -2.6338   -0.1228 N   0  0  0  0  0  0  0  0  0  0  0  0
    1.1372   -3.9410    0.1431 C   0  0  0  0  0  0  0  0  0  0  0  0
    2.0739   -4.8702    0.3678 N   0  0  0  0  0  0  0  0  0  0  0  0
    3.3038   -4.3504    0.2828 C   0  0  0  0  0  0  0  0  0  0  0  0
    4.4553   -5.0657    0.4346 N   0  0  0  0  0  0  0  0  0  0  0  0
    5.5605   -4.2814    0.1762 C   0  0  0  0  0  0  0  0  0  0  0  0
    6.9027   -4.8565    0.0462 C   0  0  0  0  0  0  0  0  0  0  0  0
    7.0410   -6.1280   -0.5272 C   0  0  0  0  0  0  0  0  0  0  0  0
    8.2969   -6.7008   -0.7282 C   0  0  0  0  0  0  0  0  0  0  0  0
    9.4633   -6.0109   -0.3893 C   0  0  0  0  0  0  0  0  0  0  0  0
   10.8128   -6.6532   -0.6386 C   0  0  0  0  0  0  0  0  0  0  0  0
   11.4513   -6.5179   -1.9523 N   0  0  0  0  0  0  0  0  0  0  0  0
   11.8555   -5.1707   -2.3470 C   0  0  0  0  0  0  0  0  0  0  0  0
   10.7580   -4.3268   -3.0331 C   0  0  0  0  0  0  0  0  0  0  0  0
   10.0018   -4.9772   -4.1228 N   0  0  0  0  0  0  0  0  0  0  0  0
   10.5646   -4.6766   -5.4434 C   0  0  0  0  0  0  0  0  0  0  0  0
    9.6558   -5.1111   -6.5992 C   0  0  0  0  0  0  0  0  0  0  0  0
   10.2257   -4.6929   -7.9315 C   0  0  0  0  0  0  0  0  0  0  0  0
   11.2795   -4.0758   -8.0827 O   0  0  0  0  0  0  0  0  0  0  0  0
    9.4643   -5.1030   -9.0027 N   0  0  0  0  0  0  0  0  0  0  0  0
    9.9241   -4.6663  -10.2677 O   0  0  0  0  0  0  0  0  0  0  0  0
    9.7434   -6.4008   -3.8509 C   0  0  0  0  0  0  0  0  0  0  0  0
   10.8139   -7.2018   -3.0751 C   0  0  0  0  0  0  0  0  0  0  0  0
    9.3309   -4.7509    0.2195 C   0  0  0  0  0  0  0  0  0  0  0  0
    8.0621   -4.1761    0.4311 C   0  0  0  0  0  0  0  0  0  0  0  0
    5.0766   -2.9887   -0.0038 C   0  0  0  0  0  0  0  0  0  0  0  0
    3.6477   -3.0378    0.0143 C   0  0  0  0  0  0  0  0  0  0  0  0
    1.5871    1.3141   -0.8423 C   0  0  0  0  0  0  0  0  0  0  0  0
    0.3429    1.7473   -0.3510 C   0  0  0  0  0  0  0  0  0  0  0  0
    0.1465    3.0751    0.0318 C   0  0  0  0  0  0  0  0  0  0  0  0
    1.1921    3.9889   -0.0655 C   0  0  0  0  0  0  0  0  0  0  0  0
    2.4367    3.5733   -0.5363 C   0  0  0  0  0  0  0  0  0  0  0  0
    2.6351    2.2442   -0.9199 C   0  0  0  0  0  0  0  0  0  0  0  0
    2.1787   -1.2949   -3.0655 H   0  0  0  0  0  0  0  0  0  0  0  0
    3.1230    0.1908   -2.9552 H   0  0  0  0  0  0  0  0  0  0  0  0
    1.4059    0.2668   -3.3831 H   0  0  0  0  0  0  0  0  0  0  0  0
    0.7821   -0.6217   -1.1481 H   0  0  0  0  0  0  0  0  0  0  0  0
    2.8077   -0.3402    0.4700 H   0  0  0  0  0  0  0  0  0  0  0  0
    0.1062   -4.2798    0.1796 H   0  0  0  0  0  0  0  0  0  0  0  0
    4.4687   -6.0556    0.6255 H   0  0  0  0  0  0  0  0  0  0  0  0
    6.1697   -6.6831   -0.8634 H   0  0  0  0  0  0  0  0  0  0  0  0
    8.3557   -7.6870   -1.1819 H   0  0  0  0  0  0  0  0  0  0  0  0
   10.7128   -7.7257   -0.4180 H   0  0  0  0  0  0  0  0  0  0  0  0
   11.5136   -6.2999    0.1290 H   0  0  0  0  0  0  0  0  0  0  0  0
   12.6893   -5.2774   -3.0555 H   0  0  0  0  0  0  0  0  0  0  0  0
   12.2758   -4.6273   -1.4923 H   0  0  0  0  0  0  0  0  0  0  0  0
   11.2171   -3.3925   -3.3818 H   0  0  0  0  0  0  0  0  0  0  0  0
   10.0315   -4.0089   -2.2818 H   0  0  0  0  0  0  0  0  0  0  0  0
   11.5673   -5.1056   -5.5525 H   0  0  0  0  0  0  0  0  0  0  0  0
   10.6755   -3.5858   -5.5257 H   0  0  0  0  0  0  0  0  0  0  0  0
    8.6590   -4.6676   -6.4894 H   0  0  0  0  0  0  0  0  0  0  0  0
    9.5460   -6.1993   -6.6369 H   0  0  0  0  0  0  0  0  0  0  0  0
    8.4718   -5.3007   -8.9250 H   0  0  0  0  0  0  0  0  0  0  0  0
   10.7569   -4.1974  -10.0357 H   0  0  0  0  0  0  0  0  0  0  0  0
    9.5356   -6.9593   -4.7679 H   0  0  0  0  0  0  0  0  0  0  0  0
    8.8002   -6.4450   -3.3021 H   0  0  0  0  0  0  0  0  0  0  0  0
   11.6115   -7.4531   -3.7884 H   0  0  0  0  0  0  0  0  0  0  0  0
   10.3998   -8.1695   -2.7651 H   0  0  0  0  0  0  0  0  0  0  0  0
   10.2168   -4.1974    0.5234 H   0  0  0  0  0  0  0  0  0  0  0  0
    7.9971   -3.1955    0.8972 H   0  0  0  0  0  0  0  0  0  0  0  0
    5.6706   -2.1139   -0.2342 H   0  0  0  0  0  0  0  0  0  0  0  0
   -0.4878    1.0489   -0.2663 H   0  0  0  0  0  0  0  0  0  0  0  0
   -0.8238    3.3950    0.4035 H   0  0  0  0  0  0  0  0  0  0  0  0
    1.0378    5.0241    0.2276 H   0  0  0  0  0  0  0  0  0  0  0  0
    3.2542    4.2863   -0.6062 H   0  0  0  0  0  0  0  0  0  0  0  0
    3.6146    1.9360   -1.2800 H   0  0  0  0  0  0  0  0  0  0  0  0
  1  2  1  0  0  0  0
  1 38  1  0  0  0  0
  1 39  1  0  0  0  0
  1 40  1  0  0  0  0
  2  3  1  0  0  0  0
  2 32  1  0  0  0  0
  2 41  1  1  0  0  0
  3  4  1  0  0  0  0
  3 42  1  0  0  0  0
  4  5  1  0  0  0  0
  4 31  2  0  0  0  0
  5  6  2  0  0  0  0
  6  7  1  0  0  0  0
  6 43  1  0  0  0  0
  7  8  2  0  0  0  0
  8  9  1  0  0  0  0
  8 31  1  0  0  0  0
  9 10  1  0  0  0  0
  9 44  1  0  0  0  0
 10 11  1  0  0  0  0
 10 30  2  0  0  0  0
 11 12  1  0  0  0  0
 11 29  2  0  0  0  0
 12 13  2  0  0  0  0
 12 45  1  0  0  0  0
 13 14  1  0  0  0  0
 13 46  1  0  0  0  0
 14 15  1  0  0  0  0
 14 28  2  0  0  0  0
 15 16  1  0  0  0  0
 15 47  1  0  0  0  0
 15 48  1  0  0  0  0
 16 17  1  0  0  0  0
 16 27  1  0  0  0  0
 17 18  1  0  0  0  0
 17 49  1  0  0  0  0
 17 50  1  0  0  0  0
 18 19  1  0  0  0  0
 18 51  1  0  0  0  0
 18 52  1  0  0  0  0
 19 20  1  0  0  0  0
 19 26  1  0  0  0  0
 20 21  1  0  0  0  0
 20 53  1  0  0  0  0
 20 54  1  0  0  0  0
 21 22  1  0  0  0  0
 21 55  1  0  0  0  0
 21 56  1  0  0  0  0
 22 23  2  0  0  0  0
 22 24  1  0  0  0  0
 24 25  1  0  0  0  0
 24 57  1  0  0  0  0
 25 58  1  0  0  0  0
 26 27  1  0  0  0  0
 26 59  1  0  0  0  0
 26 60  1  0  0  0  0
 27 61  1  0  0  0  0
 27 62  1  0  0  0  0
 28 29  1  0  0  0  0
 28 63  1  0  0  0  0
 29 64  1  0  0  0  0
 30 31  1  0  0  0  0
 30 65  1  0  0  0  0
 32 33  1  0  0  0  0
 32 37  2  0  0  0  0
 33 34  2  0  0  0  0
 33 66  1  0  0  0  0
 34 35  1  0  0  0  0
 34 67  1  0  0  0  0
 35 36  2  0  0  0  0
 35 68  1  0  0  0  0
 36 37  1  0  0  0  0
 36 69  1  0  0  0  0
 37 70  1  0  0  0  0
M  END
$$$$
