CHEMBL1956888
 OpenBabel04072215363D

 41 44  0  0  0  0  0  0  0  0999 V2000
    1.1938    0.1541   -0.2599 N   0  0  0  0  0  0  0  0  0  0  0  0
    2.5733    0.1372   -0.1774 C   0  0  0  0  0  0  0  0  0  0  0  0
    3.1400   -1.0728   -0.1157 N   0  0  0  0  0  0  0  0  0  0  0  0
    4.4921   -1.1872   -0.0643 C   0  0  0  0  0  0  0  0  0  0  0  0
    5.0894   -2.4582   -0.0470 N   0  0  0  0  0  0  0  0  0  0  0  0
    4.6246   -3.6202    0.5992 C   0  0  0  0  0  0  0  0  0  0  0  0
    3.6910   -3.5762    1.6435 C   0  0  0  0  0  0  0  0  0  0  0  0
    3.2527   -4.7446    2.2710 C   0  0  0  0  0  0  0  0  0  0  0  0
    3.7249   -5.9819    1.8431 C   0  0  0  0  0  0  0  0  0  0  0  0
    4.6354   -6.0400    0.7907 C   0  0  0  0  0  0  0  0  0  0  0  0
    5.2600   -7.7214    0.1903 Br  0  0  0  0  0  0  0  0  0  0  0  0
    5.0882   -4.8716    0.1731 C   0  0  0  0  0  0  0  0  0  0  0  0
    5.2461   -0.0033   -0.0581 C   0  0  0  0  0  0  0  0  0  0  0  0
    6.6277    0.3364   -0.0156 C   0  0  0  0  0  0  0  0  0  0  0  0
    6.7191    1.7110    0.0076 C   0  0  0  0  0  0  0  0  0  0  0  0
    5.4411    2.2205   -0.0060 N   0  0  0  0  0  0  0  0  0  0  0  0
    5.1086    3.6385   -0.0001 C   0  0  0  0  0  0  0  0  0  0  0  0
    4.9668    4.1699    1.4054 C   0  0  0  0  0  0  0  0  0  0  0  0
    6.0843    4.6303    2.1186 C   0  0  0  0  0  0  0  0  0  0  0  0
    5.9503    5.0839    3.4326 C   0  0  0  0  0  0  0  0  0  0  0  0
    4.6996    5.0842    4.0469 C   0  0  0  0  0  0  0  0  0  0  0  0
    3.5808    4.6384    3.3462 C   0  0  0  0  0  0  0  0  0  0  0  0
    3.7130    4.1817    2.0337 C   0  0  0  0  0  0  0  0  0  0  0  0
    4.5357    1.1889   -0.0713 C   0  0  0  0  0  0  0  0  0  0  0  0
    3.1997    1.3165   -0.1280 N   0  0  0  0  0  0  0  0  0  0  0  0
    0.8332   -0.7251    0.0850 H   0  0  0  0  0  0  0  0  0  0  0  0
    0.8307    1.0028    0.1461 H   0  0  0  0  0  0  0  0  0  0  0  0
    6.0953   -2.4360   -0.1485 H   0  0  0  0  0  0  0  0  0  0  0  0
    3.3118   -2.6212    1.9993 H   0  0  0  0  0  0  0  0  0  0  0  0
    2.5429   -4.6823    3.0915 H   0  0  0  0  0  0  0  0  0  0  0  0
    3.3747   -6.8880    2.3293 H   0  0  0  0  0  0  0  0  0  0  0  0
    5.7847   -4.9347   -0.6586 H   0  0  0  0  0  0  0  0  0  0  0  0
    7.4653   -0.3470    0.0089 H   0  0  0  0  0  0  0  0  0  0  0  0
    7.5807    2.3641    0.0494 H   0  0  0  0  0  0  0  0  0  0  0  0
    4.1891    3.7847   -0.5787 H   0  0  0  0  0  0  0  0  0  0  0  0
    5.9055    4.1698   -0.5346 H   0  0  0  0  0  0  0  0  0  0  0  0
    7.0702    4.6326    1.6589 H   0  0  0  0  0  0  0  0  0  0  0  0
    6.8233    5.4298    3.9806 H   0  0  0  0  0  0  0  0  0  0  0  0
    4.5974    5.4273    5.0731 H   0  0  0  0  0  0  0  0  0  0  0  0
    2.6049    4.6384    3.8246 H   0  0  0  0  0  0  0  0  0  0  0  0
    2.8316    3.8238    1.5044 H   0  0  0  0  0  0  0  0  0  0  0  0
  1  2  1  0  0  0  0
  1 26  1  0  0  0  0
  1 27  1  0  0  0  0
  2  3  1  0  0  0  0
  2 25  2  0  0  0  0
  3  4  2  0  0  0  0
  4  5  1  0  0  0  0
  4 13  1  0  0  0  0
  5  6  1  0  0  0  0
  5 28  1  0  0  0  0
  6  7  1  0  0  0  0
  6 12  2  0  0  0  0
  7  8  2  0  0  0  0
  7 29  1  0  0  0  0
  8  9  1  0  0  0  0
  8 30  1  0  0  0  0
  9 10  2  0  0  0  0
  9 31  1  0  0  0  0
 10 11  1  0  0  0  0
 10 12  1  0  0  0  0
 12 32  1  0  0  0  0
 13 14  1  0  0  0  0
 13 24  2  0  0  0  0
 14 15  2  0  0  0  0
 14 33  1  0  0  0  0
 15 16  1  0  0  0  0
 15 34  1  0  0  0  0
 16 17  1  0  0  0  0
 16 24  1  0  0  0  0
 17 18  1  0  0  0  0
 17 35  1  0  0  0  0
 17 36  1  0  0  0  0
 18 19  1  0  0  0  0
 18 23  2  0  0  0  0
 19 20  2  0  0  0  0
 19 37  1  0  0  0  0
 20 21  1  0  0  0  0
 20 38  1  0  0  0  0
 21 22  2  0  0  0  0
 21 39  1  0  0  0  0
 22 23  1  0  0  0  0
 22 40  1  0  0  0  0
 23 41  1  0  0  0  0
 24 25  1  0  0  0  0
M  END
$$$$
