CHEMBL1094195
 OpenBabel04072215363D

 70 73  0  0  0  0  0  0  0  0999 V2000
   -0.2439    2.0299   -0.9320 Cl  0  0  0  0  0  0  0  0  0  0  0  0
    1.3096   -1.0494    0.2545 N   0  0  0  0  0  0  0  0  0  0  0  0
    2.7460   -0.8510    0.0562 C   0  0  0  0  0  0  0  0  0  0  0  0
    3.0736   -0.1591   -1.2802 C   0  0  0  0  0  0  0  0  0  0  0  0
    4.5589   -0.0566   -1.4278 C   0  0  0  0  0  0  0  0  0  0  0  0
    5.4102   -1.1522   -1.4492 C   0  0  0  0  0  0  0  0  0  0  0  0
    6.6887   -0.7449   -1.5541 N   0  0  0  0  0  0  0  0  0  0  0  0
    7.8531   -1.6378   -1.5381 C   0  0  0  0  0  0  0  0  0  0  0  0
    8.7376   -1.2646   -0.3786 C   0  0  0  0  0  0  0  0  0  0  0  0
    8.2546   -1.3001    0.9403 C   0  0  0  0  0  0  0  0  0  0  0  0
    9.0447   -0.8326    1.9953 C   0  0  0  0  0  0  0  0  0  0  0  0
   10.3282   -0.2965    1.7408 C   0  0  0  0  0  0  0  0  0  0  0  0
   11.1202    0.3544    2.8254 C   0  0  0  0  0  0  0  0  0  0  0  0
   10.9878   -0.0150    4.1775 C   0  0  0  0  0  0  0  0  0  0  0  0
   11.7084    0.6576    5.1697 C   0  0  0  0  0  0  0  0  0  0  0  0
   12.5467    1.7242    4.8361 C   0  0  0  0  0  0  0  0  0  0  0  0
   12.6826    2.1237    3.4979 C   0  0  0  0  0  0  0  0  0  0  0  0
   13.5337    3.3039    3.0976 C   0  0  0  0  0  0  0  0  0  0  0  0
   14.1331    3.8993    4.1932 F   0  0  0  0  0  0  0  0  0  0  0  0
   14.5190    2.8927    2.2191 F   0  0  0  0  0  0  0  0  0  0  0  0
   12.7368    4.2458    2.4693 F   0  0  0  0  0  0  0  0  0  0  0  0
   11.9843    1.4252    2.5051 C   0  0  0  0  0  0  0  0  0  0  0  0
   10.8147   -0.3201    0.4200 C   0  0  0  0  0  0  0  0  0  0  0  0
   10.0362   -0.8121   -0.6212 C   0  0  0  0  0  0  0  0  0  0  0  0
    6.6562    0.6087   -1.6240 C   0  0  0  0  0  0  0  0  0  0  0  0
    7.7311    1.4853   -1.7429 C   0  0  0  0  0  0  0  0  0  0  0  0
    7.4758    2.8601   -1.7345 C   0  0  0  0  0  0  0  0  0  0  0  0
    6.1502    3.3683   -1.6087 C   0  0  0  0  0  0  0  0  0  0  0  0
    5.9119    4.7160   -1.5523 O   0  0  0  0  0  0  0  0  0  0  0  0
    6.9254    5.6648   -1.5892 C   0  0  0  0  0  0  0  0  0  0  0  0
    6.4247    7.1060   -1.4180 C   0  0  0  0  0  0  0  0  0  0  0  0
    7.5954    8.0702   -1.5279 C   0  0  0  0  0  0  0  0  0  0  0  0
    7.6378    9.0255   -2.5602 C   0  0  0  0  0  0  0  0  0  0  0  0
    8.7322    9.8896   -2.6858 C   0  0  0  0  0  0  0  0  0  0  0  0
    9.8015    9.8127   -1.7821 C   0  0  0  0  0  0  0  0  0  0  0  0
   10.8688   10.6296   -1.9003 O   0  0  0  0  0  0  0  0  0  0  0  0
    9.7627    8.8746   -0.7460 C   0  0  0  0  0  0  0  0  0  0  0  0
    8.6690    8.0118   -0.6158 C   0  0  0  0  0  0  0  0  0  0  0  0
    5.0718    2.4497   -1.5205 C   0  0  0  0  0  0  0  0  0  0  0  0
    5.3632    1.0715   -1.5293 C   0  0  0  0  0  0  0  0  0  0  0  0
    0.8762    1.8079   -0.1667 H   0  0  0  0  0  0  0  0  0  0  0  0
    0.9889   -0.5084    1.0893 H   0  0  0  0  0  0  0  0  0  0  0  0
    0.7515   -0.7613   -0.5806 H   0  0  0  0  0  0  0  0  0  0  0  0
    3.2293   -1.8510    0.0888 H   0  0  0  0  0  0  0  0  0  0  0  0
    3.1680   -0.2473    0.8917 H   0  0  0  0  0  0  0  0  0  0  0  0
    2.6165    0.8479   -1.3167 H   0  0  0  0  0  0  0  0  0  0  0  0
    2.6757   -0.7613   -2.1264 H   0  0  0  0  0  0  0  0  0  0  0  0
    5.1093   -2.1892   -1.3698 H   0  0  0  0  0  0  0  0  0  0  0  0
    8.3932   -1.5397   -2.5036 H   0  0  0  0  0  0  0  0  0  0  0  0
    7.5314   -2.6967   -1.4295 H   0  0  0  0  0  0  0  0  0  0  0  0
    7.2497   -1.6484    1.1476 H   0  0  0  0  0  0  0  0  0  0  0  0
    8.6251   -0.8257    2.9910 H   0  0  0  0  0  0  0  0  0  0  0  0
   10.3390   -0.8279    4.4734 H   0  0  0  0  0  0  0  0  0  0  0  0
   11.6058    0.3604    6.2052 H   0  0  0  0  0  0  0  0  0  0  0  0
   13.0752    2.2412    5.6260 H   0  0  0  0  0  0  0  0  0  0  0  0
   12.0846    1.7658    1.4831 H   0  0  0  0  0  0  0  0  0  0  0  0
   11.8003    0.0481    0.1733 H   0  0  0  0  0  0  0  0  0  0  0  0
   10.4312   -0.7890   -1.6288 H   0  0  0  0  0  0  0  0  0  0  0  0
    8.7458    1.1363   -1.8288 H   0  0  0  0  0  0  0  0  0  0  0  0
    8.3269    3.5205   -1.8152 H   0  0  0  0  0  0  0  0  0  0  0  0
    7.4541    5.5917   -2.5649 H   0  0  0  0  0  0  0  0  0  0  0  0
    7.6386    5.4537   -0.7623 H   0  0  0  0  0  0  0  0  0  0  0  0
    5.9309    7.2289   -0.4295 H   0  0  0  0  0  0  0  0  0  0  0  0
    5.6742    7.3204   -2.2095 H   0  0  0  0  0  0  0  0  0  0  0  0
    6.8285    9.0980   -3.2751 H   0  0  0  0  0  0  0  0  0  0  0  0
    8.7522   10.6139   -3.4907 H   0  0  0  0  0  0  0  0  0  0  0  0
   10.9406   11.2839   -2.6105 H   0  0  0  0  0  0  0  0  0  0  0  0
   10.5864    8.8099   -0.0453 H   0  0  0  0  0  0  0  0  0  0  0  0
    8.6687    7.2923    0.1926 H   0  0  0  0  0  0  0  0  0  0  0  0
    4.0523    2.8028   -1.4266 H   0  0  0  0  0  0  0  0  0  0  0  0
  1 41  1  0  0  0  0
  2  3  1  0  0  0  0
  2 42  1  0  0  0  0
  2 43  1  0  0  0  0
  3  4  1  0  0  0  0
  3 44  1  0  0  0  0
  3 45  1  0  0  0  0
  4  5  1  0  0  0  0
  4 46  1  0  0  0  0
  4 47  1  0  0  0  0
  5  6  2  0  0  0  0
  5 40  1  0  0  0  0
  6  7  1  0  0  0  0
  6 48  1  0  0  0  0
  7  8  1  0  0  0  0
  7 25  1  0  0  0  0
  8  9  1  0  0  0  0
  8 49  1  0  0  0  0
  8 50  1  0  0  0  0
  9 10  1  0  0  0  0
  9 24  2  0  0  0  0
 10 11  2  0  0  0  0
 10 51  1  0  0  0  0
 11 12  1  0  0  0  0
 11 52  1  0  0  0  0
 12 13  1  0  0  0  0
 12 23  2  0  0  0  0
 13 14  1  0  0  0  0
 13 22  2  0  0  0  0
 14 15  2  0  0  0  0
 14 53  1  0  0  0  0
 15 16  1  0  0  0  0
 15 54  1  0  0  0  0
 16 17  2  0  0  0  0
 16 55  1  0  0  0  0
 17 18  1  0  0  0  0
 17 22  1  0  0  0  0
 18 19  1  0  0  0  0
 18 20  1  0  0  0  0
 18 21  1  0  0  0  0
 22 56  1  0  0  0  0
 23 24  1  0  0  0  0
 23 57  1  0  0  0  0
 24 58  1  0  0  0  0
 25 26  1  0  0  0  0
 25 40  2  0  0  0  0
 26 27  2  0  0  0  0
 26 59  1  0  0  0  0
 27 28  1  0  0  0  0
 27 60  1  0  0  0  0
 28 29  1  0  0  0  0
 28 39  2  0  0  0  0
 29 30  1  0  0  0  0
 30 31  1  0  0  0  0
 30 61  1  0  0  0  0
 30 62  1  0  0  0  0
 31 32  1  0  0  0  0
 31 63  1  0  0  0  0
 31 64  1  0  0  0  0
 32 33  1  0  0  0  0
 32 38  2  0  0  0  0
 33 34  2  0  0  0  0
 33 65  1  0  0  0  0
 34 35  1  0  0  0  0
 34 66  1  0  0  0  0
 35 36  1  0  0  0  0
 35 37  2  0  0  0  0
 36 67  1  0  0  0  0
 37 38  1  0  0  0  0
 37 68  1  0  0  0  0
 38 69  1  0  0  0  0
 39 40  1  0  0  0  0
 39 70  1  0  0  0  0
M  END
$$$$
