CHEMBL3702669
 OpenBabel04072215373D

 55 58  0  0  0  0  0  0  0  0999 V2000
    2.4593   -0.0510    0.0514 C   0  0  0  0  0  0  0  0  0  0  0  0
    0.9588    0.0018    0.0697 C   0  0  0  0  0  0  0  0  0  0  0  0
    0.2761    1.2262    0.0903 C   0  0  0  0  0  0  0  0  0  0  0  0
   -1.1188    1.2314    0.0815 C   0  0  0  0  0  0  0  0  0  0  0  0
   -1.9306    2.4741    0.1807 C   0  0  0  0  0  0  0  0  0  0  0  0
   -2.9802    2.3930    0.8120 O   0  0  0  0  0  0  0  0  0  0  0  0
   -1.4729    3.5902   -0.5094 N   0  0  0  0  0  0  0  0  0  0  0  0
   -2.1534    4.8366   -0.5761 C   0  0  0  0  0  0  0  0  0  0  0  0
   -3.1790    5.1827    0.3074 C   0  0  0  0  0  0  0  0  0  0  0  0
   -3.8697    6.3861    0.1720 C   0  0  0  0  0  0  0  0  0  0  0  0
   -3.5429    7.2665   -0.8527 C   0  0  0  0  0  0  0  0  0  0  0  0
   -2.5087    6.9633   -1.7496 C   0  0  0  0  0  0  0  0  0  0  0  0
   -2.1996    7.8947   -2.9128 C   0  0  0  0  0  0  0  0  0  0  0  0
   -3.4010    8.0092   -3.8602 C   0  0  0  0  0  0  0  0  0  0  0  0
   -1.7651    9.2874   -2.4449 C   0  0  0  0  0  0  0  0  0  0  0  0
   -1.8015    5.7514   -1.5835 C   0  0  0  0  0  0  0  0  0  0  0  0
   -1.8223    0.0154    0.0283 C   0  0  0  0  0  0  0  0  0  0  0  0
   -1.1709   -1.2206   -0.0281 C   0  0  0  0  0  0  0  0  0  0  0  0
   -1.8569   -2.4016   -0.2406 N   0  0  0  0  0  0  0  0  0  0  0  0
   -3.0508   -2.4127   -1.0885 C   0  0  0  0  0  0  0  0  0  0  0  0
   -2.9172   -3.5821   -2.0592 C   0  0  0  0  0  0  0  0  0  0  0  0
   -2.6081   -4.8607   -1.3288 C   0  0  0  0  0  0  0  0  0  0  0  0
   -2.8796   -6.0102   -1.9872 N   0  0  0  0  0  0  0  0  0  0  0  0
   -2.5828   -7.1466   -1.3440 C   0  0  0  0  0  0  0  0  0  0  0  0
   -2.0554   -7.2408   -0.1126 N   0  0  0  0  0  0  0  0  0  0  0  0
   -1.7964   -6.0709    0.4988 C   0  0  0  0  0  0  0  0  0  0  0  0
   -2.0287   -4.8313   -0.0665 C   0  0  0  0  0  0  0  0  0  0  0  0
   -1.7133   -3.5501    0.6589 C   0  0  0  0  0  0  0  0  0  0  0  0
    0.2285   -1.2032    0.0326 C   0  0  0  0  0  0  0  0  0  0  0  0
    2.8975    0.9517    0.0722 H   0  0  0  0  0  0  0  0  0  0  0  0
    2.8032   -0.5472   -0.8626 H   0  0  0  0  0  0  0  0  0  0  0  0
    2.8315   -0.6024    0.9206 H   0  0  0  0  0  0  0  0  0  0  0  0
    0.8322    2.1576    0.1452 H   0  0  0  0  0  0  0  0  0  0  0  0
   -0.6969    3.4633   -1.1456 H   0  0  0  0  0  0  0  0  0  0  0  0
   -3.4714    4.5328    1.1257 H   0  0  0  0  0  0  0  0  0  0  0  0
   -4.6765    6.6222    0.8608 H   0  0  0  0  0  0  0  0  0  0  0  0
   -4.1165    8.1850   -0.9525 H   0  0  0  0  0  0  0  0  0  0  0  0
   -1.3673    7.4720   -3.4899 H   0  0  0  0  0  0  0  0  0  0  0  0
   -4.2790    8.4357   -3.3614 H   0  0  0  0  0  0  0  0  0  0  0  0
   -3.6867    7.0265   -4.2507 H   0  0  0  0  0  0  0  0  0  0  0  0
   -3.1635    8.6544   -4.7130 H   0  0  0  0  0  0  0  0  0  0  0  0
   -2.5581    9.8026   -1.8918 H   0  0  0  0  0  0  0  0  0  0  0  0
   -1.5035    9.9158   -3.3042 H   0  0  0  0  0  0  0  0  0  0  0  0
   -0.8866    9.2276   -1.7940 H   0  0  0  0  0  0  0  0  0  0  0  0
   -1.0016    5.5092   -2.2788 H   0  0  0  0  0  0  0  0  0  0  0  0
   -2.9106    0.0480    0.0355 H   0  0  0  0  0  0  0  0  0  0  0  0
   -3.1567   -1.4965   -1.6808 H   0  0  0  0  0  0  0  0  0  0  0  0
   -3.9502   -2.5121   -0.4673 H   0  0  0  0  0  0  0  0  0  0  0  0
   -2.0954   -3.3878   -2.7599 H   0  0  0  0  0  0  0  0  0  0  0  0
   -3.8389   -3.6893   -2.6404 H   0  0  0  0  0  0  0  0  0  0  0  0
   -2.7782   -8.0732   -1.8711 H   0  0  0  0  0  0  0  0  0  0  0  0
   -1.3814   -6.1676    1.5003 H   0  0  0  0  0  0  0  0  0  0  0  0
   -0.7017   -3.6159    1.0735 H   0  0  0  0  0  0  0  0  0  0  0  0
   -2.4149   -3.4390    1.4973 H   0  0  0  0  0  0  0  0  0  0  0  0
    0.7736   -2.1443   -0.0209 H   0  0  0  0  0  0  0  0  0  0  0  0
  1  2  1  0  0  0  0
  1 30  1  0  0  0  0
  1 31  1  0  0  0  0
  1 32  1  0  0  0  0
  2  3  1  0  0  0  0
  2 29  2  0  0  0  0
  3  4  2  0  0  0  0
  3 33  1  0  0  0  0
  4  5  1  0  0  0  0
  4 17  1  0  0  0  0
  5  6  2  0  0  0  0
  5  7  1  0  0  0  0
  7  8  1  0  0  0  0
  7 34  1  0  0  0  0
  8  9  1  0  0  0  0
  8 16  2  0  0  0  0
  9 10  2  0  0  0  0
  9 35  1  0  0  0  0
 10 11  1  0  0  0  0
 10 36  1  0  0  0  0
 11 12  2  0  0  0  0
 11 37  1  0  0  0  0
 12 13  1  0  0  0  0
 12 16  1  0  0  0  0
 13 14  1  0  0  0  0
 13 15  1  0  0  0  0
 13 38  1  0  0  0  0
 14 39  1  0  0  0  0
 14 40  1  0  0  0  0
 14 41  1  0  0  0  0
 15 42  1  0  0  0  0
 15 43  1  0  0  0  0
 15 44  1  0  0  0  0
 16 45  1  0  0  0  0
 17 18  2  0  0  0  0
 17 46  1  0  0  0  0
 18 19  1  0  0  0  0
 18 29  1  0  0  0  0
 19 20  1  0  0  0  0
 19 28  1  0  0  0  0
 20 21  1  0  0  0  0
 20 47  1  0  0  0  0
 20 48  1  0  0  0  0
 21 22  1  0  0  0  0
 21 49  1  0  0  0  0
 21 50  1  0  0  0  0
 22 23  1  0  0  0  0
 22 27  2  0  0  0  0
 23 24  2  0  0  0  0
 24 25  1  0  0  0  0
 24 51  1  0  0  0  0
 25 26  2  0  0  0  0
 26 27  1  0  0  0  0
 26 52  1  0  0  0  0
 27 28  1  0  0  0  0
 28 53  1  0  0  0  0
 28 54  1  0  0  0  0
 29 55  1  0  0  0  0
M  END
$$$$
