CHEMBL3236670
 OpenBabel04072215363D

 44 48  0  0  1  0  0  0  0  0999 V2000
    0.7603    0.8431   -0.5452 C   0  0  0  0  0  0  0  0  0  0  0  0
    2.2582    0.7115   -0.5561 C   0  0  0  0  0  0  0  0  0  0  0  0
    2.8699    0.4036   -1.5752 O   0  0  0  0  0  0  0  0  0  0  0  0
    2.9495    1.0131    0.7495 C   0  0  0  0  0  0  0  0  0  0  0  0
    4.4724    0.8561    0.6873 C   0  0  3  0  0  0  0  0  0  0  0  0
    5.0146    1.7563   -0.2759 O   0  0  0  0  0  0  0  0  0  0  0  0
    4.8562   -0.6476    0.3509 C   0  0  0  0  0  0  0  0  0  0  0  0
    5.2735   -0.9960   -0.7472 O   0  0  0  0  0  0  0  0  0  0  0  0
    4.7130   -1.5813    1.4515 C   0  0  0  0  0  0  0  0  0  0  0  0
    4.8525   -1.1319    2.7605 C   0  0  0  0  0  0  0  0  0  0  0  0
    4.5253   -2.1271    3.6249 O   0  0  0  0  0  0  0  0  0  0  0  0
    4.3396   -3.2467    2.8691 C   0  0  0  0  0  0  0  0  0  0  0  0
    4.0776   -4.5058    3.3876 C   0  0  0  0  0  0  0  0  0  0  0  0
    4.2536   -5.5400    2.4779 C   0  0  0  0  0  0  0  0  0  0  0  0
    4.4546   -6.8055    2.9557 O   0  0  0  0  0  0  0  0  0  0  0  0
    4.3954   -5.3221    1.1100 C   0  0  0  0  0  0  0  0  0  0  0  0
    4.5122   -6.3842    0.2581 O   0  0  0  0  0  0  0  0  0  0  0  0
    4.4705   -4.0302    0.5985 C   0  0  0  0  0  0  0  0  0  0  0  0
    4.5225   -2.9729    1.5158 C   0  0  0  0  0  0  0  0  0  0  0  0
    5.2332    0.2072    3.0282 C   0  0  0  0  0  0  0  0  0  0  0  0
    5.9582    0.7150    4.0631 O   0  0  0  0  0  0  0  0  0  0  0  0
    6.1644    2.0368    3.7712 C   0  0  0  0  0  0  0  0  0  0  0  0
    7.0047    2.9155    4.4544 C   0  0  0  0  0  0  0  0  0  0  0  0
    7.0299    4.2175    3.9589 C   0  0  0  0  0  0  0  0  0  0  0  0
    7.9997    5.0843    4.3772 O   0  0  0  0  0  0  0  0  0  0  0  0
    6.1573    4.6454    2.9547 C   0  0  0  0  0  0  0  0  0  0  0  0
    6.0884    5.9710    2.6331 O   0  0  0  0  0  0  0  0  0  0  0  0
    5.3712    3.7460    2.2527 C   0  0  0  0  0  0  0  0  0  0  0  0
    5.4508    2.3967    2.6280 C   0  0  0  0  0  0  0  0  0  0  0  0
    5.0328    1.1760    2.0591 C   0  0  0  0  0  0  0  0  0  0  0  0
    0.3483    0.4883   -1.4924 H   0  0  0  0  0  0  0  0  0  0  0  0
    0.4973    1.8938   -0.4034 H   0  0  0  0  0  0  0  0  0  0  0  0
    0.3482    0.2404    0.2684 H   0  0  0  0  0  0  0  0  0  0  0  0
    2.5185    0.3479    1.5084 H   0  0  0  0  0  0  0  0  0  0  0  0
    2.6914    2.0451    1.0155 H   0  0  0  0  0  0  0  0  0  0  0  0
    4.9376    1.2943   -1.1389 H   0  0  0  0  0  0  0  0  0  0  0  0
    3.8814   -4.6598    4.4383 H   0  0  0  0  0  0  0  0  0  0  0  0
    5.1462   -6.6971    3.6401 H   0  0  0  0  0  0  0  0  0  0  0  0
    4.3781   -7.1766    0.8157 H   0  0  0  0  0  0  0  0  0  0  0  0
    4.6185   -3.8702   -0.4699 H   0  0  0  0  0  0  0  0  0  0  0  0
    7.6564    2.5828    5.2508 H   0  0  0  0  0  0  0  0  0  0  0  0
    8.3754    5.4516    3.5501 H   0  0  0  0  0  0  0  0  0  0  0  0
    6.3520    6.4537    3.4401 H   0  0  0  0  0  0  0  0  0  0  0  0
    4.7502    4.0700    1.4251 H   0  0  0  0  0  0  0  0  0  0  0  0
  1  2  1  0  0  0  0
  1 31  1  0  0  0  0
  1 32  1  0  0  0  0
  1 33  1  0  0  0  0
  2  3  2  0  0  0  0
  2  4  1  0  0  0  0
  4  5  1  0  0  0  0
  4 34  1  0  0  0  0
  4 35  1  0  0  0  0
  5  6  1  0  0  0  0
  5  7  1  0  0  0  0
  5 30  1  0  0  0  0
  6 36  1  0  0  0  0
  7  8  2  0  0  0  0
  7  9  1  0  0  0  0
  9 10  2  0  0  0  0
  9 19  1  0  0  0  0
 10 11  1  0  0  0  0
 10 20  1  0  0  0  0
 11 12  1  0  0  0  0
 12 13  1  0  0  0  0
 12 19  2  0  0  0  0
 13 14  2  0  0  0  0
 13 37  1  0  0  0  0
 14 15  1  0  0  0  0
 14 16  1  0  0  0  0
 15 38  1  0  0  0  0
 16 17  1  0  0  0  0
 16 18  2  0  0  0  0
 17 39  1  0  0  0  0
 18 19  1  0  0  0  0
 18 40  1  0  0  0  0
 20 21  1  0  0  0  0
 20 30  2  0  0  0  0
 21 22  1  0  0  0  0
 22 23  1  0  0  0  0
 22 29  2  0  0  0  0
 23 24  2  0  0  0  0
 23 41  1  0  0  0  0
 24 25  1  0  0  0  0
 24 26  1  0  0  0  0
 25 42  1  0  0  0  0
 26 27  1  0  0  0  0
 26 28  2  0  0  0  0
 27 43  1  0  0  0  0
 28 29  1  0  0  0  0
 28 44  1  0  0  0  0
 29 30  1  0  0  0  0
M  END
$$$$
