CHEMBL3942179
 OpenBabel04072215373D

 58 62  0  0  0  0  0  0  0  0999 V2000
    0.4735    0.9820   -3.7474 C   0  0  0  0  0  0  0  0  0  0  0  0
    1.7843    0.6388   -4.2097 O   0  0  0  0  0  0  0  0  0  0  0  0
    2.7925    0.6104   -3.2752 C   0  0  0  0  0  0  0  0  0  0  0  0
    2.6179    0.9391   -1.9313 C   0  0  0  0  0  0  0  0  0  0  0  0
    3.6899    0.8345   -1.0505 C   0  0  0  0  0  0  0  0  0  0  0  0
    3.6417    1.0946    0.2950 O   0  0  0  0  0  0  0  0  0  0  0  0
    2.4188    1.6138    0.8079 C   0  0  0  0  0  0  0  0  0  0  0  0
    4.9357    0.3912   -1.5141 C   0  0  0  0  0  0  0  0  0  0  0  0
    5.1568    0.0441   -2.8566 C   0  0  0  0  0  0  0  0  0  0  0  0
    6.3452   -0.6038   -3.2880 N   0  0  0  0  0  0  0  0  0  0  0  0
    6.9863   -1.5463   -2.2894 C   0  0  0  0  0  0  0  0  0  0  0  0
    6.1226   -2.6981   -1.7418 C   0  0  0  0  0  0  0  0  0  0  0  0
    5.8688   -3.7918   -2.6545 N   0  0  0  0  0  0  0  0  0  0  0  0
    4.8344   -3.8874   -3.5337 C   0  0  0  0  0  0  0  0  0  0  0  0
    4.8415   -5.0758   -4.0898 N   0  0  0  0  0  0  0  0  0  0  0  0
    5.8844   -5.7885   -3.5417 N   0  0  0  0  0  0  0  0  0  0  0  0
    6.4800   -5.0108   -2.6691 C   0  0  0  0  0  0  0  0  0  0  0  0
    7.4079   -0.0996   -4.1347 C   0  0  0  0  0  0  0  0  0  0  0  0
    8.0318   -1.0750   -4.9093 C   0  0  0  0  0  0  0  0  0  0  0  0
    9.3556   -0.9299   -5.2603 C   0  0  0  0  0  0  0  0  0  0  0  0
   10.0371    0.2344   -5.0329 C   0  0  0  0  0  0  0  0  0  0  0  0
   11.3653    0.1407   -5.2451 N   0  0  0  0  0  0  0  0  0  0  0  0
   12.0377    1.2939   -5.2883 C   0  0  0  0  0  0  0  0  0  0  0  0
   11.3953    2.5135   -5.2374 C   0  0  0  0  0  0  0  0  0  0  0  0
   12.0491    3.5693   -6.0128 C   0  0  0  0  0  0  0  0  0  0  0  0
   12.7188    4.7692   -5.6888 C   0  0  0  0  0  0  0  0  0  0  0  0
   13.3023    5.3473   -6.7530 N   0  0  0  0  0  0  0  0  0  0  0  0
   13.0025    4.5171   -7.7686 N   0  0  0  0  0  0  0  0  0  0  0  0
   13.2622    4.8893   -9.1410 C   0  0  0  0  0  0  0  0  0  0  0  0
   12.3741    3.3814   -7.3505 C   0  0  0  0  0  0  0  0  0  0  0  0
   10.0764    2.5998   -4.8304 N   0  0  0  0  0  0  0  0  0  0  0  0
    9.3651    1.4062   -4.6471 C   0  0  0  0  0  0  0  0  0  0  0  0
    8.0328    1.1807   -4.1038 C   0  0  0  0  0  0  0  0  0  0  0  0
    4.0596    0.1833   -3.7332 C   0  0  0  0  0  0  0  0  0  0  0  0
   -0.2186    0.9315   -4.5944 H   0  0  0  0  0  0  0  0  0  0  0  0
    0.4445    2.0078   -3.3619 H   0  0  0  0  0  0  0  0  0  0  0  0
    0.1155    0.2725   -2.9915 H   0  0  0  0  0  0  0  0  0  0  0  0
    1.6514    1.2599   -1.5684 H   0  0  0  0  0  0  0  0  0  0  0  0
    2.5665    1.8303    1.8702 H   0  0  0  0  0  0  0  0  0  0  0  0
    1.6132    0.8770    0.7266 H   0  0  0  0  0  0  0  0  0  0  0  0
    2.1479    2.5523    0.3120 H   0  0  0  0  0  0  0  0  0  0  0  0
    5.7320    0.3029   -0.7821 H   0  0  0  0  0  0  0  0  0  0  0  0
    7.3728   -0.9574   -1.4496 H   0  0  0  0  0  0  0  0  0  0  0  0
    7.8730   -2.0362   -2.7120 H   0  0  0  0  0  0  0  0  0  0  0  0
    5.1600   -2.3703   -1.3422 H   0  0  0  0  0  0  0  0  0  0  0  0
    6.6729   -3.1424   -0.8996 H   0  0  0  0  0  0  0  0  0  0  0  0
    4.1194   -3.0993   -3.7181 H   0  0  0  0  0  0  0  0  0  0  0  0
    7.3097   -5.2957   -2.0362 H   0  0  0  0  0  0  0  0  0  0  0  0
    7.5418   -2.0344   -5.0836 H   0  0  0  0  0  0  0  0  0  0  0  0
    9.8834   -1.7750   -5.6972 H   0  0  0  0  0  0  0  0  0  0  0  0
   13.0943    1.1998   -5.5168 H   0  0  0  0  0  0  0  0  0  0  0  0
   12.8382    5.2463   -4.7247 H   0  0  0  0  0  0  0  0  0  0  0  0
   13.3779    5.9738   -9.2092 H   0  0  0  0  0  0  0  0  0  0  0  0
   12.4025    4.5815   -9.7448 H   0  0  0  0  0  0  0  0  0  0  0  0
   14.1654    4.3835   -9.4913 H   0  0  0  0  0  0  0  0  0  0  0  0
   12.1869    2.5623   -8.0330 H   0  0  0  0  0  0  0  0  0  0  0  0
    7.5341    2.0184   -3.6107 H   0  0  0  0  0  0  0  0  0  0  0  0
    4.1622   -0.1107   -4.7763 H   0  0  0  0  0  0  0  0  0  0  0  0
  1  2  1  0  0  0  0
  1 35  1  0  0  0  0
  1 36  1  0  0  0  0
  1 37  1  0  0  0  0
  2  3  1  0  0  0  0
  3  4  1  0  0  0  0
  3 34  2  0  0  0  0
  4  5  2  0  0  0  0
  4 38  1  0  0  0  0
  5  6  1  0  0  0  0
  5  8  1  0  0  0  0
  6  7  1  0  0  0  0
  7 39  1  0  0  0  0
  7 40  1  0  0  0  0
  7 41  1  0  0  0  0
  8  9  2  0  0  0  0
  8 42  1  0  0  0  0
  9 10  1  0  0  0  0
  9 34  1  0  0  0  0
 10 11  1  0  0  0  0
 10 18  1  0  0  0  0
 11 12  1  0  0  0  0
 11 43  1  0  0  0  0
 11 44  1  0  0  0  0
 12 13  1  0  0  0  0
 12 45  1  0  0  0  0
 12 46  1  0  0  0  0
 13 14  1  0  0  0  0
 13 17  1  0  0  0  0
 14 15  2  0  0  0  0
 14 47  1  0  0  0  0
 15 16  1  0  0  0  0
 16 17  2  0  0  0  0
 17 48  1  0  0  0  0
 18 19  1  0  0  0  0
 18 33  2  0  0  0  0
 19 20  2  0  0  0  0
 19 49  1  0  0  0  0
 20 21  1  0  0  0  0
 20 50  1  0  0  0  0
 21 22  1  0  0  0  0
 21 32  2  0  0  0  0
 22 23  2  0  0  0  0
 23 24  1  0  0  0  0
 23 51  1  0  0  0  0
 24 25  1  0  0  0  0
 24 31  2  0  0  0  0
 25 26  1  0  0  0  0
 25 30  2  0  0  0  0
 26 27  2  0  0  0  0
 26 52  1  0  0  0  0
 27 28  1  0  0  0  0
 28 29  1  0  0  0  0
 28 30  1  0  0  0  0
 29 53  1  0  0  0  0
 29 54  1  0  0  0  0
 29 55  1  0  0  0  0
 30 56  1  0  0  0  0
 31 32  1  0  0  0  0
 32 33  1  0  0  0  0
 33 57  1  0  0  0  0
 34 58  1  0  0  0  0
M  END
$$$$
