CHEMBL3702605
 OpenBabel04072215373D

 48 51  0  0  0  0  0  0  0  0999 V2000
    4.8084    3.4978   -2.8776 N   0  0  0  0  0  0  0  0  0  0  0  0
    5.5424    2.4482   -2.3664 C   0  0  0  0  0  0  0  0  0  0  0  0
    6.6250    2.0658   -3.0469 N   0  0  0  0  0  0  0  0  0  0  0  0
    7.3207    1.0339   -2.5328 C   0  0  0  0  0  0  0  0  0  0  0  0
    6.9857    0.3844   -1.3639 C   0  0  0  0  0  0  0  0  0  0  0  0
    5.8582    0.8727   -0.7272 C   0  0  0  0  0  0  0  0  0  0  0  0
    5.1388    1.9121   -1.2112 N   0  0  0  0  0  0  0  0  0  0  0  0
    5.4030    0.2870    0.5830 C   0  0  0  0  0  0  0  0  0  0  0  0
    5.9342   -1.1307    0.7697 C   0  0  0  0  0  0  0  0  0  0  0  0
    7.3739   -1.1776    0.4874 N   0  0  0  0  0  0  0  0  0  0  0  0
    8.3205   -1.3243    1.4846 C   0  0  0  0  0  0  0  0  0  0  0  0
    9.5601   -1.9329    1.2399 C   0  0  0  0  0  0  0  0  0  0  0  0
   10.5166   -2.1058    2.2517 C   0  0  0  0  0  0  0  0  0  0  0  0
   10.2594   -1.6696    3.5507 C   0  0  0  0  0  0  0  0  0  0  0  0
    9.0335   -1.0628    3.8250 C   0  0  0  0  0  0  0  0  0  0  0  0
    8.6203   -0.6427    5.1904 C   0  0  0  0  0  0  0  0  0  0  0  0
    7.4174   -0.6933    5.4386 O   0  0  0  0  0  0  0  0  0  0  0  0
    9.6038   -0.1668    6.0467 N   0  0  0  0  0  0  0  0  0  0  0  0
    9.3522    0.3185    7.3566 C   0  0  0  0  0  0  0  0  0  0  0  0
    8.1767    0.0226    8.0560 C   0  0  0  0  0  0  0  0  0  0  0  0
    7.9117    0.5958    9.2994 C   0  0  0  0  0  0  0  0  0  0  0  0
    8.8273    1.4745    9.8661 C   0  0  0  0  0  0  0  0  0  0  0  0
   10.0309    1.7626    9.2088 C   0  0  0  0  0  0  0  0  0  0  0  0
   11.0065    2.7415    9.8081 C   0  0  0  0  0  0  0  0  0  0  0  0
   10.5732    3.3078   10.9701 F   0  0  0  0  0  0  0  0  0  0  0  0
   12.2098    2.1706   10.1003 F   0  0  0  0  0  0  0  0  0  0  0  0
   11.2813    3.7803    8.9706 F   0  0  0  0  0  0  0  0  0  0  0  0
   10.2969    1.1536    7.9620 C   0  0  0  0  0  0  0  0  0  0  0  0
    8.0857   -0.9033    2.7985 C   0  0  0  0  0  0  0  0  0  0  0  0
    7.7694   -0.7974   -0.8708 C   0  0  0  0  0  0  0  0  0  0  0  0
    5.3949    4.0597   -3.4774 H   0  0  0  0  0  0  0  0  0  0  0  0
    4.3204    3.9671   -2.1283 H   0  0  0  0  0  0  0  0  0  0  0  0
    8.1856    0.7361   -3.1190 H   0  0  0  0  0  0  0  0  0  0  0  0
    4.3076    0.2739    0.6225 H   0  0  0  0  0  0  0  0  0  0  0  0
    5.7597    0.9362    1.3908 H   0  0  0  0  0  0  0  0  0  0  0  0
    5.4276   -1.8079    0.0691 H   0  0  0  0  0  0  0  0  0  0  0  0
    5.6835   -1.5073    1.7686 H   0  0  0  0  0  0  0  0  0  0  0  0
    9.7829   -2.3322    0.2528 H   0  0  0  0  0  0  0  0  0  0  0  0
   11.4502   -2.6142    2.0222 H   0  0  0  0  0  0  0  0  0  0  0  0
   10.9899   -1.8527    4.3315 H   0  0  0  0  0  0  0  0  0  0  0  0
   10.5127    0.0333    5.6497 H   0  0  0  0  0  0  0  0  0  0  0  0
    7.4317   -0.6579    7.6552 H   0  0  0  0  0  0  0  0  0  0  0  0
    6.9778    0.3671    9.8062 H   0  0  0  0  0  0  0  0  0  0  0  0
    8.5902    1.9369   10.8234 H   0  0  0  0  0  0  0  0  0  0  0  0
   11.2337    1.3858    7.4568 H   0  0  0  0  0  0  0  0  0  0  0  0
    7.1449   -0.4180    3.0499 H   0  0  0  0  0  0  0  0  0  0  0  0
    7.5855   -1.6470   -1.5396 H   0  0  0  0  0  0  0  0  0  0  0  0
    8.8351   -0.5453   -0.9277 H   0  0  0  0  0  0  0  0  0  0  0  0
  1  2  1  0  0  0  0
  1 31  1  0  0  0  0
  1 32  1  0  0  0  0
  2  3  1  0  0  0  0
  2  7  2  0  0  0  0
  3  4  2  0  0  0  0
  4  5  1  0  0  0  0
  4 33  1  0  0  0  0
  5  6  2  0  0  0  0
  5 30  1  0  0  0  0
  6  7  1  0  0  0  0
  6  8  1  0  0  0  0
  8  9  1  0  0  0  0
  8 34  1  0  0  0  0
  8 35  1  0  0  0  0
  9 10  1  0  0  0  0
  9 36  1  0  0  0  0
  9 37  1  0  0  0  0
 10 11  1  0  0  0  0
 10 30  1  0  0  0  0
 11 12  1  0  0  0  0
 11 29  2  0  0  0  0
 12 13  2  0  0  0  0
 12 38  1  0  0  0  0
 13 14  1  0  0  0  0
 13 39  1  0  0  0  0
 14 15  2  0  0  0  0
 14 40  1  0  0  0  0
 15 16  1  0  0  0  0
 15 29  1  0  0  0  0
 16 17  2  0  0  0  0
 16 18  1  0  0  0  0
 18 19  1  0  0  0  0
 18 41  1  0  0  0  0
 19 20  1  0  0  0  0
 19 28  2  0  0  0  0
 20 21  2  0  0  0  0
 20 42  1  0  0  0  0
 21 22  1  0  0  0  0
 21 43  1  0  0  0  0
 22 23  2  0  0  0  0
 22 44  1  0  0  0  0
 23 24  1  0  0  0  0
 23 28  1  0  0  0  0
 24 25  1  0  0  0  0
 24 26  1  0  0  0  0
 24 27  1  0  0  0  0
 28 45  1  0  0  0  0
 29 46  1  0  0  0  0
 30 47  1  0  0  0  0
 30 48  1  0  0  0  0
M  END
$$$$
