CHEMBL3628797
 OpenBabel04072215373D

 44 47  0  0  0  0  0  0  0  0999 V2000
    1.1703    0.2898   -0.7170 O   0  0  0  0  0  0  0  0  0  0  0  0
    2.2064   -0.0481   -0.1581 C   0  0  0  0  0  0  0  0  0  0  0  0
    2.6544   -1.3602   -0.0748 N   0  0  0  0  0  0  0  0  0  0  0  0
    1.9732   -2.4912   -0.5928 C   0  0  0  0  0  0  0  0  0  0  0  0
    0.9101   -2.4098   -1.4934 C   0  0  0  0  0  0  0  0  0  0  0  0
    0.1965   -3.5525   -1.8840 C   0  0  0  0  0  0  0  0  0  0  0  0
    0.5526   -4.8180   -1.4258 C   0  0  0  0  0  0  0  0  0  0  0  0
   -0.2251   -5.9717   -1.6360 N   0  0  0  0  0  0  0  0  0  0  0  0
   -1.3925   -6.1973   -2.4083 C   0  0  0  0  0  0  0  0  0  0  0  0
   -1.6395   -5.4447   -3.4952 N   0  0  0  0  0  0  0  0  0  0  0  0
   -2.7739   -5.6985   -4.1568 C   0  0  0  0  0  0  0  0  0  0  0  0
   -3.6935   -6.6170   -3.8377 N   0  0  0  0  0  0  0  0  0  0  0  0
   -3.4566   -7.3430   -2.7425 C   0  0  0  0  0  0  0  0  0  0  0  0
   -4.4138   -8.2656   -2.3329 C   0  0  0  0  0  0  0  0  0  0  0  0
   -4.2539   -9.0362   -1.1780 C   0  0  0  0  0  0  0  0  0  0  0  0
   -3.1005   -8.9083   -0.4208 C   0  0  0  0  0  0  0  0  0  0  0  0
   -2.1218   -7.9990   -0.8160 C   0  0  0  0  0  0  0  0  0  0  0  0
   -2.2936   -7.1946   -1.9737 C   0  0  0  0  0  0  0  0  0  0  0  0
    1.6504   -4.8995   -0.5524 C   0  0  0  0  0  0  0  0  0  0  0  0
    2.3607   -3.7564   -0.1491 C   0  0  0  0  0  0  0  0  0  0  0  0
    3.0575    0.8310    0.4943 N   0  0  0  0  0  0  0  0  0  0  0  0
    2.8343    2.2186    0.6949 C   0  0  0  0  0  0  0  0  0  0  0  0
    1.6729    2.8876    0.2938 C   0  0  0  0  0  0  0  0  0  0  0  0
    1.5060    4.2576    0.5254 C   0  0  0  0  0  0  0  0  0  0  0  0
    2.5020    4.9813    1.1701 C   0  0  0  0  0  0  0  0  0  0  0  0
    3.6603    4.3243    1.5771 C   0  0  0  0  0  0  0  0  0  0  0  0
    5.0122    5.3044    2.4687 Br  0  0  0  0  0  0  0  0  0  0  0  0
    3.8342    2.9534    1.3421 C   0  0  0  0  0  0  0  0  0  0  0  0
    3.4046   -1.5481    0.5709 H   0  0  0  0  0  0  0  0  0  0  0  0
    0.5809   -1.4624   -1.9078 H   0  0  0  0  0  0  0  0  0  0  0  0
   -0.6570   -3.4142   -2.5414 H   0  0  0  0  0  0  0  0  0  0  0  0
    0.2848   -6.8321   -1.4906 H   0  0  0  0  0  0  0  0  0  0  0  0
   -2.9741   -5.0971   -5.0375 H   0  0  0  0  0  0  0  0  0  0  0  0
   -5.3240   -8.3734   -2.9198 H   0  0  0  0  0  0  0  0  0  0  0  0
   -5.0375   -9.7241   -0.8705 H   0  0  0  0  0  0  0  0  0  0  0  0
   -2.9655   -9.4972    0.4833 H   0  0  0  0  0  0  0  0  0  0  0  0
   -1.2342   -7.8949   -0.1973 H   0  0  0  0  0  0  0  0  0  0  0  0
    1.9416   -5.8610   -0.1367 H   0  0  0  0  0  0  0  0  0  0  0  0
    3.1822   -3.8776    0.5516 H   0  0  0  0  0  0  0  0  0  0  0  0
    3.9442    0.4682    0.8057 H   0  0  0  0  0  0  0  0  0  0  0  0
    0.8562    2.3775   -0.2066 H   0  0  0  0  0  0  0  0  0  0  0  0
    0.5927    4.7481    0.1989 H   0  0  0  0  0  0  0  0  0  0  0  0
    2.3624    6.0437    1.3488 H   0  0  0  0  0  0  0  0  0  0  0  0
    4.7495    2.4744    1.6736 H   0  0  0  0  0  0  0  0  0  0  0  0
  1  2  2  0  0  0  0
  2  3  1  0  0  0  0
  2 21  1  0  0  0  0
  3  4  1  0  0  0  0
  3 29  1  0  0  0  0
  4  5  1  0  0  0  0
  4 20  2  0  0  0  0
  5  6  2  0  0  0  0
  5 30  1  0  0  0  0
  6  7  1  0  0  0  0
  6 31  1  0  0  0  0
  7  8  1  0  0  0  0
  7 19  2  0  0  0  0
  8  9  1  0  0  0  0
  8 32  1  0  0  0  0
  9 10  1  0  0  0  0
  9 18  2  0  0  0  0
 10 11  2  0  0  0  0
 11 12  1  0  0  0  0
 11 33  1  0  0  0  0
 12 13  2  0  0  0  0
 13 14  1  0  0  0  0
 13 18  1  0  0  0  0
 14 15  2  0  0  0  0
 14 34  1  0  0  0  0
 15 16  1  0  0  0  0
 15 35  1  0  0  0  0
 16 17  2  0  0  0  0
 16 36  1  0  0  0  0
 17 18  1  0  0  0  0
 17 37  1  0  0  0  0
 19 20  1  0  0  0  0
 19 38  1  0  0  0  0
 20 39  1  0  0  0  0
 21 22  1  0  0  0  0
 21 40  1  0  0  0  0
 22 23  1  0  0  0  0
 22 28  2  0  0  0  0
 23 24  2  0  0  0  0
 23 41  1  0  0  0  0
 24 25  1  0  0  0  0
 24 42  1  0  0  0  0
 25 26  2  0  0  0  0
 25 43  1  0  0  0  0
 26 27  1  0  0  0  0
 26 28  1  0  0  0  0
 28 44  1  0  0  0  0
M  END
$$$$
