CHEMBL3905323
 OpenBabel04072215373D

 52 55  0  0  0  0  0  0  0  0999 V2000
    4.8349   -2.1428   -0.3872 O   0  0  0  0  0  0  0  0  0  0  0  0
    4.1019   -1.1809   -0.1860 C   0  0  0  0  0  0  0  0  0  0  0  0
    2.8122   -1.0754   -0.6631 N   0  0  0  0  0  0  0  0  0  0  0  0
    2.1931   -2.0365   -1.5067 C   0  0  0  0  0  0  0  0  0  0  0  0
    2.6538   -3.3498   -1.6420 C   0  0  0  0  0  0  0  0  0  0  0  0
    2.0538   -4.2290   -2.5481 C   0  0  0  0  0  0  0  0  0  0  0  0
    0.9679   -3.8150   -3.3128 C   0  0  0  0  0  0  0  0  0  0  0  0
    0.4796   -4.7401   -4.2057 O   0  0  0  0  0  0  0  0  0  0  0  0
   -0.8766   -4.8293   -4.4213 C   0  0  0  0  0  0  0  0  0  0  0  0
   -1.8379   -4.5411   -3.4574 C   0  0  0  0  0  0  0  0  0  0  0  0
   -3.1578   -4.6408   -3.8292 C   0  0  0  0  0  0  0  0  0  0  0  0
   -3.5582   -5.0474   -5.0472 N   0  0  0  0  0  0  0  0  0  0  0  0
   -2.6287   -5.3921   -5.9545 C   0  0  0  0  0  0  0  0  0  0  0  0
   -3.0215   -5.8538   -7.2196 N   0  0  0  0  0  0  0  0  0  0  0  0
   -4.3351   -6.0019   -7.6184 C   0  0  0  0  0  0  0  0  0  0  0  0
   -5.3396   -5.7894   -6.9568 O   0  0  0  0  0  0  0  0  0  0  0  0
   -4.5484   -6.4846   -9.0154 C   0  0  0  0  0  0  0  0  0  0  0  0
   -4.1145   -7.8815   -9.3950 C   0  0  0  0  0  0  0  0  0  0  0  0
   -3.4946   -6.6928  -10.0715 C   0  0  0  0  0  0  0  0  0  0  0  0
   -1.2717   -5.2956   -5.6760 C   0  0  0  0  0  0  0  0  0  0  0  0
    0.4942   -2.5069   -3.1914 C   0  0  0  0  0  0  0  0  0  0  0  0
    1.0925   -1.6422   -2.2723 C   0  0  0  0  0  0  0  0  0  0  0  0
    0.6134   -0.3928   -2.1544 F   0  0  0  0  0  0  0  0  0  0  0  0
    4.5091   -0.0603    0.5158 N   0  0  0  0  0  0  0  0  0  0  0  0
    5.8588    0.2160    0.8703 C   0  0  0  0  0  0  0  0  0  0  0  0
    6.9341   -0.3909    0.2023 C   0  0  0  0  0  0  0  0  0  0  0  0
    8.2689   -0.1054    0.5285 C   0  0  0  0  0  0  0  0  0  0  0  0
    9.3967   -0.8026   -0.1968 C   0  0  0  0  0  0  0  0  0  0  0  0
    8.9803   -1.7262   -1.1065 F   0  0  0  0  0  0  0  0  0  0  0  0
   10.1831    0.0691   -0.8867 F   0  0  0  0  0  0  0  0  0  0  0  0
   10.2288   -1.4658    0.6529 F   0  0  0  0  0  0  0  0  0  0  0  0
    8.5289    0.8376    1.5295 C   0  0  0  0  0  0  0  0  0  0  0  0
    7.4728    1.4586    2.2030 C   0  0  0  0  0  0  0  0  0  0  0  0
    6.1469    1.1474    1.8783 C   0  0  0  0  0  0  0  0  0  0  0  0
    4.8813    1.9194    2.7682 Cl  0  0  0  0  0  0  0  0  0  0  0  0
    2.3844   -0.1575   -0.6546 H   0  0  0  0  0  0  0  0  0  0  0  0
    3.4864   -3.7314   -1.0606 H   0  0  0  0  0  0  0  0  0  0  0  0
    2.4511   -5.2366   -2.6527 H   0  0  0  0  0  0  0  0  0  0  0  0
   -1.5824   -4.2346   -2.4508 H   0  0  0  0  0  0  0  0  0  0  0  0
   -3.9604   -4.3884   -3.1422 H   0  0  0  0  0  0  0  0  0  0  0  0
   -2.2922   -6.1075   -7.8634 H   0  0  0  0  0  0  0  0  0  0  0  0
   -5.5217   -6.1725   -9.3924 H   0  0  0  0  0  0  0  0  0  0  0  0
   -4.8233   -8.4849   -9.9517 H   0  0  0  0  0  0  0  0  0  0  0  0
   -3.5164   -8.4462   -8.6891 H   0  0  0  0  0  0  0  0  0  0  0  0
   -3.7840   -6.4883  -11.0987 H   0  0  0  0  0  0  0  0  0  0  0  0
   -2.4546   -6.4739   -9.8759 H   0  0  0  0  0  0  0  0  0  0  0  0
   -0.5202   -5.5690   -6.4082 H   0  0  0  0  0  0  0  0  0  0  0  0
   -0.3276   -2.1432   -3.7985 H   0  0  0  0  0  0  0  0  0  0  0  0
    3.7974    0.4648    1.0080 H   0  0  0  0  0  0  0  0  0  0  0  0
    6.7594   -1.0976   -0.6064 H   0  0  0  0  0  0  0  0  0  0  0  0
    9.5568    1.0899    1.7874 H   0  0  0  0  0  0  0  0  0  0  0  0
    7.6924    2.1833    2.9839 H   0  0  0  0  0  0  0  0  0  0  0  0
  1  2  2  0  0  0  0
  2  3  1  0  0  0  0
  2 24  1  0  0  0  0
  3  4  1  0  0  0  0
  3 36  1  0  0  0  0
  4  5  1  0  0  0  0
  4 22  2  0  0  0  0
  5  6  2  0  0  0  0
  5 37  1  0  0  0  0
  6  7  1  0  0  0  0
  6 38  1  0  0  0  0
  7  8  1  0  0  0  0
  7 21  2  0  0  0  0
  8  9  1  0  0  0  0
  9 10  1  0  0  0  0
  9 20  2  0  0  0  0
 10 11  2  0  0  0  0
 10 39  1  0  0  0  0
 11 12  1  0  0  0  0
 11 40  1  0  0  0  0
 12 13  2  0  0  0  0
 13 14  1  0  0  0  0
 13 20  1  0  0  0  0
 14 15  1  0  0  0  0
 14 41  1  0  0  0  0
 15 16  2  0  0  0  0
 15 17  1  0  0  0  0
 17 18  1  0  0  0  0
 17 19  1  0  0  0  0
 17 42  1  0  0  0  0
 18 19  1  0  0  0  0
 18 43  1  0  0  0  0
 18 44  1  0  0  0  0
 19 45  1  0  0  0  0
 19 46  1  0  0  0  0
 20 47  1  0  0  0  0
 21 22  1  0  0  0  0
 21 48  1  0  0  0  0
 22 23  1  0  0  0  0
 24 25  1  0  0  0  0
 24 49  1  0  0  0  0
 25 26  1  0  0  0  0
 25 34  2  0  0  0  0
 26 27  2  0  0  0  0
 26 50  1  0  0  0  0
 27 28  1  0  0  0  0
 27 32  1  0  0  0  0
 28 29  1  0  0  0  0
 28 30  1  0  0  0  0
 28 31  1  0  0  0  0
 32 33  2  0  0  0  0
 32 51  1  0  0  0  0
 33 34  1  0  0  0  0
 33 52  1  0  0  0  0
 34 35  1  0  0  0  0
M  END
$$$$
