CHEMBL1082829
 OpenBabel04072215363D

 67 73  0  0  1  0  0  0  0  0999 V2000
    3.1279   -0.9212   -3.5371 C   0  0  0  0  0  0  0  0  0  0  0  0
    2.8960    0.4881   -3.0211 C   0  0  0  0  0  0  0  0  0  0  0  0
    3.7040    0.8103   -1.7622 C   0  0  0  0  0  0  0  0  0  0  0  0
    5.2429    0.8294   -1.9181 C   0  0  0  0  0  0  0  0  0  0  0  0
    5.7802    1.8489   -2.8153 N   0  0  0  0  0  0  0  0  0  0  0  0
    5.5357    3.2317   -2.6499 C   0  0  0  0  0  0  0  0  0  0  0  0
    4.9487    3.9633   -1.6031 C   0  0  0  0  0  0  0  0  0  0  0  0
    4.6889    5.3354   -1.7992 C   0  0  0  0  0  0  0  0  0  0  0  0
    5.0144    5.9934   -2.9884 C   0  0  0  0  0  0  0  0  0  0  0  0
    4.7782    7.4658   -3.2831 C   0  0  3  0  0  0  0  0  0  0  0  0
    4.0263    8.2972   -2.2462 C   0  0  0  0  0  0  0  0  0  0  0  0
    2.5299    8.0122   -2.2619 C   0  0  0  0  0  0  0  0  0  0  0  0
    1.9730    8.1492   -3.6711 C   0  0  0  0  0  0  0  0  0  0  0  0
    2.8046    7.3700   -4.6808 C   0  0  0  0  0  0  0  0  0  0  0  0
    4.1968    7.6718   -4.5868 O   0  0  0  0  0  0  0  0  0  0  0  0
    5.6623    5.2536   -3.9794 C   0  0  0  0  0  0  0  0  0  0  0  0
    5.8897    3.8725   -3.8395 C   0  0  0  0  0  0  0  0  0  0  0  0
    6.3279    2.8415   -4.6242 C   0  0  0  0  0  0  0  0  0  0  0  0
    6.3848    2.9468   -6.0195 C   0  0  0  0  0  0  0  0  0  0  0  0
    6.2479    1.7317   -6.7159 C   0  0  0  0  0  0  0  0  0  0  0  0
    6.2470    0.4670   -6.0963 C   0  0  0  0  0  0  0  0  0  0  0  0
    6.8461    0.4933   -4.7894 C   0  0  0  0  0  0  0  0  0  0  0  0
    6.4394    1.6156   -4.0277 C   0  0  0  0  0  0  0  0  0  0  0  0
    8.3689    0.0066   -4.8571 C   0  0  0  0  0  0  0  0  0  0  0  0
    8.9360   -0.2243   -6.3227 C   0  0  0  0  0  0  0  0  0  0  0  0
    7.9267   -1.0501   -7.0395 C   0  0  0  0  0  0  0  0  0  0  0  0
    8.0834   -2.2814   -7.5241 N   0  0  0  0  0  0  0  0  0  0  0  0
    6.8040   -2.7267   -7.6059 N   0  0  0  0  0  0  0  0  0  0  0  0
    6.5470   -4.1012   -7.9600 C   0  0  0  0  0  0  0  0  0  0  0  0
    5.8814   -1.8444   -7.0981 C   0  0  0  0  0  0  0  0  0  0  0  0
    6.5776   -0.6803   -6.9042 C   0  0  0  0  0  0  0  0  0  0  0  0
    6.2654    2.0517   -8.1224 C   0  0  0  0  0  0  0  0  0  0  0  0
    6.1572    1.3837   -9.1409 O   0  0  0  0  0  0  0  0  0  0  0  0
    6.4804    3.4240   -8.1652 N   0  0  0  0  0  0  0  0  0  0  0  0
    6.4697    4.1082   -6.8957 C   0  0  0  0  0  0  0  0  0  0  0  0
    2.4793   -1.1191   -4.3958 H   0  0  0  0  0  0  0  0  0  0  0  0
    2.8993   -1.6625   -2.7644 H   0  0  0  0  0  0  0  0  0  0  0  0
    4.1628   -1.0624   -3.8577 H   0  0  0  0  0  0  0  0  0  0  0  0
    1.8286    0.5912   -2.7801 H   0  0  0  0  0  0  0  0  0  0  0  0
    3.1052    1.2173   -3.8102 H   0  0  0  0  0  0  0  0  0  0  0  0
    3.4432    0.0819   -0.9828 H   0  0  0  0  0  0  0  0  0  0  0  0
    3.3453    1.7738   -1.3844 H   0  0  0  0  0  0  0  0  0  0  0  0
    5.6077   -0.1502   -2.2415 H   0  0  0  0  0  0  0  0  0  0  0  0
    5.6891    1.0279   -0.9357 H   0  0  0  0  0  0  0  0  0  0  0  0
    4.6526    3.4901   -0.6734 H   0  0  0  0  0  0  0  0  0  0  0  0
    4.1977    5.8699   -0.9900 H   0  0  0  0  0  0  0  0  0  0  0  0
    5.7854    7.8987   -3.3548 H   0  0  0  0  0  0  0  0  0  0  0  0
    4.1646    9.3562   -2.5029 H   0  0  0  0  0  0  0  0  0  0  0  0
    4.4434    8.1571   -1.2444 H   0  0  0  0  0  0  0  0  0  0  0  0
    2.0169    8.7063   -1.5879 H   0  0  0  0  0  0  0  0  0  0  0  0
    2.3288    7.0021   -1.8901 H   0  0  0  0  0  0  0  0  0  0  0  0
    1.9780    9.2111   -3.9455 H   0  0  0  0  0  0  0  0  0  0  0  0
    0.9309    7.8122   -3.7001 H   0  0  0  0  0  0  0  0  0  0  0  0
    2.4805    7.6437   -5.6923 H   0  0  0  0  0  0  0  0  0  0  0  0
    2.6504    6.2905   -4.5793 H   0  0  0  0  0  0  0  0  0  0  0  0
    5.9450    5.7613   -4.8993 H   0  0  0  0  0  0  0  0  0  0  0  0
    8.4346   -0.9434   -4.3148 H   0  0  0  0  0  0  0  0  0  0  0  0
    9.0094    0.7417   -4.3569 H   0  0  0  0  0  0  0  0  0  0  0  0
    9.9252   -0.6898   -6.3197 H   0  0  0  0  0  0  0  0  0  0  0  0
    9.0353    0.7425   -6.8407 H   0  0  0  0  0  0  0  0  0  0  0  0
    7.4204   -4.5144   -8.4700 H   0  0  0  0  0  0  0  0  0  0  0  0
    5.6780   -4.1336   -8.6212 H   0  0  0  0  0  0  0  0  0  0  0  0
    6.3492   -4.6562   -7.0392 H   0  0  0  0  0  0  0  0  0  0  0  0
    4.8666   -2.1407   -6.8737 H   0  0  0  0  0  0  0  0  0  0  0  0
    6.5524    3.8897   -9.0566 H   0  0  0  0  0  0  0  0  0  0  0  0
    5.5800    4.7366   -6.8502 H   0  0  0  0  0  0  0  0  0  0  0  0
    7.3947    4.6754   -6.7586 H   0  0  0  0  0  0  0  0  0  0  0  0
  1  2  1  0  0  0  0
  1 36  1  0  0  0  0
  1 37  1  0  0  0  0
  1 38  1  0  0  0  0
  2  3  1  0  0  0  0
  2 39  1  0  0  0  0
  2 40  1  0  0  0  0
  3  4  1  0  0  0  0
  3 41  1  0  0  0  0
  3 42  1  0  0  0  0
  4  5  1  0  0  0  0
  4 43  1  0  0  0  0
  4 44  1  0  0  0  0
  5  6  1  0  0  0  0
  5 23  1  0  0  0  0
  6  7  1  0  0  0  0
  6 17  2  0  0  0  0
  7  8  2  0  0  0  0
  7 45  1  0  0  0  0
  8  9  1  0  0  0  0
  8 46  1  0  0  0  0
  9 10  1  0  0  0  0
  9 16  2  0  0  0  0
 10 11  1  0  0  0  0
 10 15  1  0  0  0  0
 10 47  1  0  0  0  0
 11 12  1  0  0  0  0
 11 48  1  0  0  0  0
 11 49  1  0  0  0  0
 12 13  1  0  0  0  0
 12 50  1  0  0  0  0
 12 51  1  0  0  0  0
 13 14  1  0  0  0  0
 13 52  1  0  0  0  0
 13 53  1  0  0  0  0
 14 15  1  0  0  0  0
 14 54  1  0  0  0  0
 14 55  1  0  0  0  0
 16 17  1  0  0  0  0
 16 56  1  0  0  0  0
 17 18  1  0  0  0  0
 18 19  1  0  0  0  0
 18 23  2  0  0  0  0
 19 20  2  0  0  0  0
 19 35  1  0  0  0  0
 20 21  1  0  0  0  0
 20 32  1  0  0  0  0
 21 22  2  0  0  0  0
 21 31  1  0  0  0  0
 22 23  1  0  0  0  0
 22 24  1  0  0  0  0
 24 25  1  0  0  0  0
 24 57  1  0  0  0  0
 24 58  1  0  0  0  0
 25 26  1  0  0  0  0
 25 59  1  0  0  0  0
 25 60  1  0  0  0  0
 26 27  2  0  0  0  0
 26 31  1  0  0  0  0
 27 28  1  0  0  0  0
 28 29  1  0  0  0  0
 28 30  1  0  0  0  0
 29 61  1  0  0  0  0
 29 62  1  0  0  0  0
 29 63  1  0  0  0  0
 30 31  2  0  0  0  0
 30 64  1  0  0  0  0
 32 33  2  0  0  0  0
 32 34  1  0  0  0  0
 34 35  1  0  0  0  0
 34 65  1  0  0  0  0
 35 66  1  0  0  0  0
 35 67  1  0  0  0  0
M  END
$$$$
