CHEMBL223219
 OpenBabel04072215363D

 62 67  0  0  0  0  0  0  0  0999 V2000
    1.9133    0.0380   -1.0818 C   0  0  0  0  0  0  0  0  0  0  0  0
    0.4661    0.2284   -1.1039 N   0  0  0  0  0  0  0  0  0  0  0  0
   -0.2343   -1.0187   -0.7572 C   0  0  0  0  0  0  0  0  0  0  0  0
   -1.7660   -0.8154   -0.7277 C   0  0  0  0  0  0  0  0  0  0  0  0
   -2.2236    0.2161    0.2290 N   0  0  0  0  0  0  0  0  0  0  0  0
   -2.0230   -0.1494    1.6435 C   0  0  0  0  0  0  0  0  0  0  0  0
   -2.7420   -1.4139    2.0837 C   0  0  0  0  0  0  0  0  0  0  0  0
   -2.0862   -2.6703    1.9865 C   0  0  0  0  0  0  0  0  0  0  0  0
   -2.7164   -3.8668    2.3351 C   0  0  0  0  0  0  0  0  0  0  0  0
   -3.9939   -3.7729    2.8243 C   0  0  0  0  0  0  0  0  0  0  0  0
   -4.6670   -2.5293    2.9780 C   0  0  0  0  0  0  0  0  0  0  0  0
   -4.0514   -1.3498    2.5888 C   0  0  0  0  0  0  0  0  0  0  0  0
   -6.0617   -2.6758    3.6093 C   0  0  0  0  0  0  0  0  0  0  0  0
   -6.0651   -4.1619    3.7286 C   0  0  0  0  0  0  0  0  0  0  0  0
   -6.8574   -5.2267    4.1667 C   0  0  0  0  0  0  0  0  0  0  0  0
   -8.1877   -5.0964    4.7732 C   0  0  0  0  0  0  0  0  0  0  0  0
   -8.8782   -3.9174    4.9695 C   0  0  0  0  0  0  0  0  0  0  0  0
  -10.3877   -4.1641    5.7296 S   0  0  0  0  0  0  0  0  0  0  0  0
  -10.1336   -5.8490    5.8010 C   0  0  0  0  0  0  0  0  0  0  0  0
  -11.0857   -6.7347    6.3741 C   0  0  0  0  0  0  0  0  0  0  0  0
  -11.9973   -7.4972    6.9104 C   0  0  0  0  0  0  0  0  0  0  0  0
  -13.0599   -8.3862    7.5357 C   0  0  0  0  0  0  0  0  0  0  0  0
  -13.0673   -9.6492    6.8800 O   0  0  0  0  0  0  0  0  0  0  0  0
  -13.9922  -10.5500    7.3261 C   0  0  0  0  0  0  0  0  0  0  0  0
  -14.9000  -10.3610    8.3661 C   0  0  0  0  0  0  0  0  0  0  0  0
  -15.7862  -11.3846    8.7026 C   0  0  0  0  0  0  0  0  0  0  0  0
  -15.7337  -12.5678    7.9851 C   0  0  0  0  0  0  0  0  0  0  0  0
  -14.8699  -12.7897    6.9737 N   0  0  0  0  0  0  0  0  0  0  0  0
  -14.0219  -11.7763    6.6705 C   0  0  0  0  0  0  0  0  0  0  0  0
   -8.9248   -6.2205    5.2556 C   0  0  0  0  0  0  0  0  0  0  0  0
   -6.2374   -6.4109    3.9763 N   0  0  0  0  0  0  0  0  0  0  0  0
   -5.0414   -6.0793    3.4233 N   0  0  0  0  0  0  0  0  0  0  0  0
   -4.9136   -4.7476    3.2869 C   0  0  0  0  0  0  0  0  0  0  0  0
   -1.4911    1.4664   -0.0940 C   0  0  0  0  0  0  0  0  0  0  0  0
    0.0523    1.3189   -0.2007 C   0  0  0  0  0  0  0  0  0  0  0  0
    2.2054   -0.7708   -1.7613 H   0  0  0  0  0  0  0  0  0  0  0  0
    2.2859   -0.2065   -0.0805 H   0  0  0  0  0  0  0  0  0  0  0  0
    2.4234    0.9421   -1.4305 H   0  0  0  0  0  0  0  0  0  0  0  0
    0.1182   -1.3945    0.2105 H   0  0  0  0  0  0  0  0  0  0  0  0
   -0.0047   -1.7906   -1.5011 H   0  0  0  0  0  0  0  0  0  0  0  0
   -2.2723   -1.7704   -0.5556 H   0  0  0  0  0  0  0  0  0  0  0  0
   -2.0940   -0.5147   -1.7329 H   0  0  0  0  0  0  0  0  0  0  0  0
   -2.4033    0.6713    2.2679 H   0  0  0  0  0  0  0  0  0  0  0  0
   -0.9633   -0.2437    1.9071 H   0  0  0  0  0  0  0  0  0  0  0  0
   -1.0660   -2.7177    1.6142 H   0  0  0  0  0  0  0  0  0  0  0  0
   -2.2082   -4.8170    2.2292 H   0  0  0  0  0  0  0  0  0  0  0  0
   -4.5683   -0.3986    2.6783 H   0  0  0  0  0  0  0  0  0  0  0  0
   -6.8396   -2.3099    2.9355 H   0  0  0  0  0  0  0  0  0  0  0  0
   -6.0955   -2.1895    4.5877 H   0  0  0  0  0  0  0  0  0  0  0  0
   -8.5847   -2.9107    4.7162 H   0  0  0  0  0  0  0  0  0  0  0  0
  -14.0285   -7.8855    7.4187 H   0  0  0  0  0  0  0  0  0  0  0  0
  -12.8189   -8.5053    8.5987 H   0  0  0  0  0  0  0  0  0  0  0  0
  -14.9488   -9.4391    8.9349 H   0  0  0  0  0  0  0  0  0  0  0  0
  -16.5014  -11.2591    9.5079 H   0  0  0  0  0  0  0  0  0  0  0  0
  -16.4045  -13.3912    8.2123 H   0  0  0  0  0  0  0  0  0  0  0  0
  -13.3373  -11.9813    5.8517 H   0  0  0  0  0  0  0  0  0  0  0  0
   -8.5779   -7.2480    5.2035 H   0  0  0  0  0  0  0  0  0  0  0  0
   -4.3945   -6.8198    3.1739 H   0  0  0  0  0  0  0  0  0  0  0  0
   -1.7354    2.2480    0.6359 H   0  0  0  0  0  0  0  0  0  0  0  0
   -1.8690    1.8377   -1.0565 H   0  0  0  0  0  0  0  0  0  0  0  0
    0.4675    1.1635    0.8033 H   0  0  0  0  0  0  0  0  0  0  0  0
    0.4606    2.2660   -0.5733 H   0  0  0  0  0  0  0  0  0  0  0  0
  1  2  1  0  0  0  0
  1 36  1  0  0  0  0
  1 37  1  0  0  0  0
  1 38  1  0  0  0  0
  2  3  1  0  0  0  0
  2 35  1  0  0  0  0
  3  4  1  0  0  0  0
  3 39  1  0  0  0  0
  3 40  1  0  0  0  0
  4  5  1  0  0  0  0
  4 41  1  0  0  0  0
  4 42  1  0  0  0  0
  5  6  1  0  0  0  0
  5 34  1  0  0  0  0
  6  7  1  0  0  0  0
  6 43  1  0  0  0  0
  6 44  1  0  0  0  0
  7  8  1  0  0  0  0
  7 12  2  0  0  0  0
  8  9  2  0  0  0  0
  8 45  1  0  0  0  0
  9 10  1  0  0  0  0
  9 46  1  0  0  0  0
 10 11  2  0  0  0  0
 10 33  1  0  0  0  0
 11 12  1  0  0  0  0
 11 13  1  0  0  0  0
 12 47  1  0  0  0  0
 13 14  1  0  0  0  0
 13 48  1  0  0  0  0
 13 49  1  0  0  0  0
 14 15  1  0  0  0  0
 14 33  2  0  0  0  0
 15 16  1  0  0  0  0
 15 31  2  0  0  0  0
 16 17  2  0  0  0  0
 16 30  1  0  0  0  0
 17 18  1  0  0  0  0
 17 50  1  0  0  0  0
 18 19  1  0  0  0  0
 19 20  1  0  0  0  0
 19 30  2  0  0  0  0
 20 21  3  0  0  0  0
 21 22  1  0  0  0  0
 22 23  1  0  0  0  0
 22 51  1  0  0  0  0
 22 52  1  0  0  0  0
 23 24  1  0  0  0  0
 24 25  1  0  0  0  0
 24 29  2  0  0  0  0
 25 26  2  0  0  0  0
 25 53  1  0  0  0  0
 26 27  1  0  0  0  0
 26 54  1  0  0  0  0
 27 28  2  0  0  0  0
 27 55  1  0  0  0  0
 28 29  1  0  0  0  0
 29 56  1  0  0  0  0
 30 57  1  0  0  0  0
 31 32  1  0  0  0  0
 32 33  1  0  0  0  0
 32 58  1  0  0  0  0
 34 35  1  0  0  0  0
 34 59  1  0  0  0  0
 34 60  1  0  0  0  0
 35 61  1  0  0  0  0
 35 62  1  0  0  0  0
M  END
$$$$
