CHEMBL257292
 OpenBabel04072215363D

 45 48  0  0  0  0  0  0  0  0999 V2000
   -1.6276   -2.8280   -1.5017 C   0  0  0  0  0  0  0  0  0  0  0  0
   -0.8808   -1.5236   -1.4610 C   0  0  0  0  0  0  0  0  0  0  0  0
   -1.5661   -0.3708   -1.9058 C   0  0  0  0  0  0  0  0  0  0  0  0
   -0.9566    0.8820   -1.9067 C   0  0  0  0  0  0  0  0  0  0  0  0
    0.3375    1.0100   -1.4358 C   0  0  0  0  0  0  0  0  0  0  0  0
    1.0210   -0.1167   -0.9800 C   0  0  0  0  0  0  0  0  0  0  0  0
    0.4475   -1.4002   -1.0032 C   0  0  0  0  0  0  0  0  0  0  0  0
    1.1845   -2.5483   -0.5879 N   0  0  0  0  0  0  0  0  0  0  0  0
    2.5574   -2.5750   -0.3779 C   0  0  0  0  0  0  0  0  0  0  0  0
    3.3062   -1.6104   -0.5275 O   0  0  0  0  0  0  0  0  0  0  0  0
    3.0358   -3.8333   -0.0260 N   0  0  0  0  0  0  0  0  0  0  0  0
    4.4301   -4.0040    0.1989 C   0  0  0  0  0  0  0  0  0  0  0  0
    5.1672   -3.0796    0.9418 C   0  0  0  0  0  0  0  0  0  0  0  0
    6.5665   -3.1378    0.9691 C   0  0  0  0  0  0  0  0  0  0  0  0
    7.2744   -4.1371    0.2787 C   0  0  0  0  0  0  0  0  0  0  0  0
    8.7529   -4.1105    0.2111 C   0  0  0  0  0  0  0  0  0  0  0  0
    9.5315   -3.7105    1.3209 C   0  0  0  0  0  0  0  0  0  0  0  0
   10.9173   -3.6659    1.2390 C   0  0  0  0  0  0  0  0  0  0  0  0
   11.6431   -3.9979    0.1561 N   0  0  0  0  0  0  0  0  0  0  0  0
   10.8781   -4.3680   -0.8863 C   0  0  0  0  0  0  0  0  0  0  0  0
   11.3587   -4.7479   -2.1018 N   0  0  0  0  0  0  0  0  0  0  0  0
   10.4046   -5.0426   -2.9972 N   0  0  0  0  0  0  0  0  0  0  0  0
    9.2735   -4.8291   -2.3256 C   0  0  0  0  0  0  0  0  0  0  0  0
    8.0865   -4.9679   -2.9387 N   0  0  0  0  0  0  0  0  0  0  0  0
    9.4886   -4.4377   -0.9639 C   0  0  0  0  0  0  0  0  0  0  0  0
    6.5024   -5.1388   -0.3356 C   0  0  0  0  0  0  0  0  0  0  0  0
    5.0988   -5.0704   -0.3924 C   0  0  0  0  0  0  0  0  0  0  0  0
   -2.5458   -2.7389   -2.0952 H   0  0  0  0  0  0  0  0  0  0  0  0
   -1.9137   -3.1313   -0.4902 H   0  0  0  0  0  0  0  0  0  0  0  0
   -1.0270   -3.6123   -1.9710 H   0  0  0  0  0  0  0  0  0  0  0  0
   -2.5887   -0.4451   -2.2700 H   0  0  0  0  0  0  0  0  0  0  0  0
   -1.4909    1.7553   -2.2686 H   0  0  0  0  0  0  0  0  0  0  0  0
    0.8307    1.9777   -1.4178 H   0  0  0  0  0  0  0  0  0  0  0  0
    2.0181    0.0624   -0.5935 H   0  0  0  0  0  0  0  0  0  0  0  0
    0.6790   -3.4152   -0.4888 H   0  0  0  0  0  0  0  0  0  0  0  0
    2.5603   -4.6065   -0.4667 H   0  0  0  0  0  0  0  0  0  0  0  0
    4.6674   -2.2682    1.4674 H   0  0  0  0  0  0  0  0  0  0  0  0
    7.0911   -2.3498    1.5060 H   0  0  0  0  0  0  0  0  0  0  0  0
    9.0620   -3.4324    2.2601 H   0  0  0  0  0  0  0  0  0  0  0  0
   11.5053   -3.3438    2.0959 H   0  0  0  0  0  0  0  0  0  0  0  0
   12.3319   -4.8175   -2.3705 H   0  0  0  0  0  0  0  0  0  0  0  0
    8.1377   -5.0875   -3.9450 H   0  0  0  0  0  0  0  0  0  0  0  0
    7.3199   -4.3652   -2.6581 H   0  0  0  0  0  0  0  0  0  0  0  0
    6.9931   -5.9744   -0.8331 H   0  0  0  0  0  0  0  0  0  0  0  0
    4.5650   -5.8142   -0.9759 H   0  0  0  0  0  0  0  0  0  0  0  0
  1  2  1  0  0  0  0
  1 28  1  0  0  0  0
  1 29  1  0  0  0  0
  1 30  1  0  0  0  0
  2  3  1  0  0  0  0
  2  7  2  0  0  0  0
  3  4  2  0  0  0  0
  3 31  1  0  0  0  0
  4  5  1  0  0  0  0
  4 32  1  0  0  0  0
  5  6  2  0  0  0  0
  5 33  1  0  0  0  0
  6  7  1  0  0  0  0
  6 34  1  0  0  0  0
  7  8  1  0  0  0  0
  8  9  1  0  0  0  0
  8 35  1  0  0  0  0
  9 10  2  0  0  0  0
  9 11  1  0  0  0  0
 11 12  1  0  0  0  0
 11 36  1  0  0  0  0
 12 13  1  0  0  0  0
 12 27  2  0  0  0  0
 13 14  2  0  0  0  0
 13 37  1  0  0  0  0
 14 15  1  0  0  0  0
 14 38  1  0  0  0  0
 15 16  1  0  0  0  0
 15 26  2  0  0  0  0
 16 17  1  0  0  0  0
 16 25  2  0  0  0  0
 17 18  2  0  0  0  0
 17 39  1  0  0  0  0
 18 19  1  0  0  0  0
 18 40  1  0  0  0  0
 19 20  2  0  0  0  0
 20 21  1  0  0  0  0
 20 25  1  0  0  0  0
 21 22  1  0  0  0  0
 21 41  1  0  0  0  0
 22 23  2  0  0  0  0
 23 24  1  0  0  0  0
 23 25  1  0  0  0  0
 24 42  1  0  0  0  0
 24 43  1  0  0  0  0
 26 27  1  0  0  0  0
 26 44  1  0  0  0  0
 27 45  1  0  0  0  0
M  END
$$$$
