CHEMBL3753226
 OpenBabel04072215373D

 63 68  0  0  0  0  0  0  0  0999 V2000
    3.6092   -1.6040   -0.4929 O   0  0  0  0  0  0  0  0  0  0  0  0
    3.2711   -0.7787   -1.3424 C   0  0  0  0  0  0  0  0  0  0  0  0
    3.1461    0.6727   -0.9117 C   0  0  0  0  0  0  0  0  0  0  0  0
    2.0749    1.4496   -1.5782 N   0  0  0  0  0  0  0  0  0  0  0  0
    2.0579    2.8126   -0.9792 C   0  0  0  0  0  0  0  0  0  0  0  0
    1.5602    2.8895    0.4784 C   0  0  0  0  0  0  0  0  0  0  0  0
    0.3011    2.1836    0.6819 N   0  0  0  0  0  0  0  0  0  0  0  0
   -0.7236    2.6616    1.4836 C   0  0  0  0  0  0  0  0  0  0  0  0
   -1.9836    2.3273    1.1076 N   0  0  0  0  0  0  0  0  0  0  0  0
   -3.0826    2.8604    1.7330 N   0  0  0  0  0  0  0  0  0  0  0  0
   -2.9447    3.6957    2.7842 C   0  0  0  0  0  0  0  0  0  0  0  0
   -4.2248    4.3014    3.2455 C   0  0  0  0  0  0  0  0  0  0  0  0
   -5.4463    3.6100    3.1331 C   0  0  0  0  0  0  0  0  0  0  0  0
   -6.6525    4.1816    3.5602 C   0  0  0  0  0  0  0  0  0  0  0  0
   -6.6640    5.4498    4.1343 C   0  0  0  0  0  0  0  0  0  0  0  0
   -5.4793    6.1619    4.2458 C   0  0  0  0  0  0  0  0  0  0  0  0
   -4.2923    5.6107    3.7620 C   0  0  0  0  0  0  0  0  0  0  0  0
   -1.6669    3.9799    3.3094 C   0  0  0  0  0  0  0  0  0  0  0  0
   -1.4352    4.7411    4.4996 C   0  0  0  0  0  0  0  0  0  0  0  0
   -0.1668    5.1304    4.9267 C   0  0  0  0  0  0  0  0  0  0  0  0
    0.9333    4.6709    4.2477 C   0  0  0  0  0  0  0  0  0  0  0  0
    0.7428    3.8077    3.1780 C   0  0  0  0  0  0  0  0  0  0  0  0
   -0.5359    3.4756    2.6430 C   0  0  0  0  0  0  0  0  0  0  0  0
    0.1862    0.8524    0.0830 C   0  0  0  0  0  0  0  0  0  0  0  0
    0.7095    0.8844   -1.3723 C   0  0  0  0  0  0  0  0  0  0  0  0
    3.0994   -1.0290   -2.6847 N   0  0  0  0  0  0  0  0  0  0  0  0
    3.1688   -2.3193   -3.1334 C   0  0  0  0  0  0  0  0  0  0  0  0
    3.1235   -3.4121   -2.4191 N   0  0  0  0  0  0  0  0  0  0  0  0
    3.4485   -4.5004   -3.1967 C   0  0  0  0  0  0  0  0  0  0  0  0
    3.5396   -5.8278   -2.6052 C   0  0  0  0  0  0  0  0  0  0  0  0
    2.7354   -6.1407   -1.4973 C   0  0  0  0  0  0  0  0  0  0  0  0
    2.7532   -7.4225   -0.9413 C   0  0  0  0  0  0  0  0  0  0  0  0
    3.5939   -8.3930   -1.4787 C   0  0  0  0  0  0  0  0  0  0  0  0
    3.5908   -9.9846   -0.8260 Cl  0  0  0  0  0  0  0  0  0  0  0  0
    4.4344   -8.0849   -2.5471 C   0  0  0  0  0  0  0  0  0  0  0  0
    4.4109   -6.8034   -3.1070 C   0  0  0  0  0  0  0  0  0  0  0  0
    3.6352   -4.2105   -4.5364 C   0  0  0  0  0  0  0  0  0  0  0  0
    3.3730   -2.5275   -4.8106 S   0  0  0  0  0  0  0  0  0  0  0  0
    4.1156    1.1409   -1.1242 H   0  0  0  0  0  0  0  0  0  0  0  0
    3.0207    0.6532    0.1757 H   0  0  0  0  0  0  0  0  0  0  0  0
    1.4191    3.4590   -1.5927 H   0  0  0  0  0  0  0  0  0  0  0  0
    3.0609    3.2572   -1.0207 H   0  0  0  0  0  0  0  0  0  0  0  0
    1.4684    3.9560    0.7095 H   0  0  0  0  0  0  0  0  0  0  0  0
    2.3173    2.4458    1.1353 H   0  0  0  0  0  0  0  0  0  0  0  0
   -5.4736    2.6144    2.6909 H   0  0  0  0  0  0  0  0  0  0  0  0
   -7.5840    3.6354    3.4379 H   0  0  0  0  0  0  0  0  0  0  0  0
   -7.5952    5.8904    4.4787 H   0  0  0  0  0  0  0  0  0  0  0  0
   -5.4681    7.1543    4.6890 H   0  0  0  0  0  0  0  0  0  0  0  0
   -3.4089    6.2431    3.7910 H   0  0  0  0  0  0  0  0  0  0  0  0
   -2.2630    5.0496    5.1364 H   0  0  0  0  0  0  0  0  0  0  0  0
   -0.0485    5.7643    5.7966 H   0  0  0  0  0  0  0  0  0  0  0  0
    1.9393    4.9383    4.5541 H   0  0  0  0  0  0  0  0  0  0  0  0
    1.6516    3.3874    2.7768 H   0  0  0  0  0  0  0  0  0  0  0  0
   -0.8415    0.4695    0.0715 H   0  0  0  0  0  0  0  0  0  0  0  0
    0.7723    0.1448    0.6820 H   0  0  0  0  0  0  0  0  0  0  0  0
    0.0166    1.5096   -1.9543 H   0  0  0  0  0  0  0  0  0  0  0  0
    0.6382   -0.1134   -1.8143 H   0  0  0  0  0  0  0  0  0  0  0  0
    3.0737   -0.2699   -3.3481 H   0  0  0  0  0  0  0  0  0  0  0  0
    2.0811   -5.3831   -1.0669 H   0  0  0  0  0  0  0  0  0  0  0  0
    2.1063   -7.6518   -0.0990 H   0  0  0  0  0  0  0  0  0  0  0  0
    5.1065   -8.8366   -2.9519 H   0  0  0  0  0  0  0  0  0  0  0  0
    5.0875   -6.5783   -3.9271 H   0  0  0  0  0  0  0  0  0  0  0  0
    3.8889   -4.8768   -5.3471 H   0  0  0  0  0  0  0  0  0  0  0  0
  1  2  2  0  0  0  0
  2  3  1  0  0  0  0
  2 26  1  0  0  0  0
  3  4  1  0  0  0  0
  3 39  1  0  0  0  0
  3 40  1  0  0  0  0
  4  5  1  0  0  0  0
  4 25  1  0  0  0  0
  5  6  1  0  0  0  0
  5 41  1  0  0  0  0
  5 42  1  0  0  0  0
  6  7  1  0  0  0  0
  6 43  1  0  0  0  0
  6 44  1  0  0  0  0
  7  8  1  0  0  0  0
  7 24  1  0  0  0  0
  8  9  1  0  0  0  0
  8 23  2  0  0  0  0
  9 10  2  0  0  0  0
 10 11  1  0  0  0  0
 11 12  1  0  0  0  0
 11 18  2  0  0  0  0
 12 13  1  0  0  0  0
 12 17  2  0  0  0  0
 13 14  2  0  0  0  0
 13 45  1  0  0  0  0
 14 15  1  0  0  0  0
 14 46  1  0  0  0  0
 15 16  2  0  0  0  0
 15 47  1  0  0  0  0
 16 17  1  0  0  0  0
 16 48  1  0  0  0  0
 17 49  1  0  0  0  0
 18 19  1  0  0  0  0
 18 23  1  0  0  0  0
 19 20  2  0  0  0  0
 19 50  1  0  0  0  0
 20 21  1  0  0  0  0
 20 51  1  0  0  0  0
 21 22  2  0  0  0  0
 21 52  1  0  0  0  0
 22 23  1  0  0  0  0
 22 53  1  0  0  0  0
 24 25  1  0  0  0  0
 24 54  1  0  0  0  0
 24 55  1  0  0  0  0
 25 56  1  0  0  0  0
 25 57  1  0  0  0  0
 26 27  1  0  0  0  0
 26 58  1  0  0  0  0
 27 28  2  0  0  0  0
 27 38  1  0  0  0  0
 28 29  1  0  0  0  0
 29 30  1  0  0  0  0
 29 37  2  0  0  0  0
 30 31  1  0  0  0  0
 30 36  2  0  0  0  0
 31 32  2  0  0  0  0
 31 59  1  0  0  0  0
 32 33  1  0  0  0  0
 32 60  1  0  0  0  0
 33 34  1  0  0  0  0
 33 35  2  0  0  0  0
 35 36  1  0  0  0  0
 35 61  1  0  0  0  0
 36 62  1  0  0  0  0
 37 38  1  0  0  0  0
 37 63  1  0  0  0  0
M  END
$$$$
