CHEMBL3628802
 OpenBabel04072215373D

 34 37  0  0  0  0  0  0  0  0999 V2000
   -0.8076    6.3325   -3.5991 F   0  0  0  0  0  0  0  0  0  0  0  0
   -1.2592    5.4335   -2.7123 C   0  0  0  0  0  0  0  0  0  0  0  0
   -2.3410    5.7769   -1.9094 C   0  0  0  0  0  0  0  0  0  0  0  0
   -2.8287    4.8559   -0.9826 C   0  0  0  0  0  0  0  0  0  0  0  0
   -2.2631    3.5767   -0.8939 C   0  0  0  0  0  0  0  0  0  0  0  0
   -2.7272    2.6262   -0.0092 O   0  0  0  0  0  0  0  0  0  0  0  0
   -4.1053    2.4067    0.0274 C   0  0  0  0  0  0  0  0  0  0  0  0
   -4.8642    2.8005   -1.0247 N   0  0  0  0  0  0  0  0  0  0  0  0
   -6.1851    2.6032   -0.9643 C   0  0  0  0  0  0  0  0  0  0  0  0
   -6.8678    2.0180    0.0173 N   0  0  0  0  0  0  0  0  0  0  0  0
   -6.0784    1.6000    1.0207 C   0  0  0  0  0  0  0  0  0  0  0  0
   -6.7560    0.7882    2.3545 S   0  0  0  0  0  0  0  0  0  0  0  0
   -5.2383    0.6288    3.0993 C   0  0  0  0  0  0  0  0  0  0  0  0
   -4.2153    1.1969    2.3594 C   0  0  0  0  0  0  0  0  0  0  0  0
   -4.7010    1.7525    1.1178 C   0  0  0  0  0  0  0  0  0  0  0  0
   -2.8019    1.2142    2.8763 C   0  0  0  0  0  0  0  0  0  0  0  0
   -2.5907    0.1940    4.0100 C   0  0  0  0  0  0  0  0  0  0  0  0
   -3.7276    0.2377    5.0404 C   0  0  0  0  0  0  0  0  0  0  0  0
   -5.0815   -0.0942    4.4001 C   0  0  0  0  0  0  0  0  0  0  0  0
   -1.1558    3.2466   -1.6798 C   0  0  0  0  0  0  0  0  0  0  0  0
   -0.6568    4.1796   -2.5920 C   0  0  0  0  0  0  0  0  0  0  0  0
    0.7038    3.7733   -3.5672 Cl  0  0  0  0  0  0  0  0  0  0  0  0
   -2.8030    6.7535   -2.0132 H   0  0  0  0  0  0  0  0  0  0  0  0
   -3.6715    5.1316   -0.3544 H   0  0  0  0  0  0  0  0  0  0  0  0
   -6.7649    2.9680   -1.8065 H   0  0  0  0  0  0  0  0  0  0  0  0
   -2.5873    2.2210    3.2559 H   0  0  0  0  0  0  0  0  0  0  0  0
   -2.0912    1.0061    2.0705 H   0  0  0  0  0  0  0  0  0  0  0  0
   -1.6335    0.3909    4.5055 H   0  0  0  0  0  0  0  0  0  0  0  0
   -2.5309   -0.8166    3.5866 H   0  0  0  0  0  0  0  0  0  0  0  0
   -3.7691    1.2379    5.4901 H   0  0  0  0  0  0  0  0  0  0  0  0
   -3.5264   -0.4701    5.8530 H   0  0  0  0  0  0  0  0  0  0  0  0
   -5.8877    0.1639    5.0980 H   0  0  0  0  0  0  0  0  0  0  0  0
   -5.1396   -1.1743    4.2151 H   0  0  0  0  0  0  0  0  0  0  0  0
   -0.6948    2.2677   -1.5913 H   0  0  0  0  0  0  0  0  0  0  0  0
  1  2  1  0  0  0  0
  2  3  1  0  0  0  0
  2 21  2  0  0  0  0
  3  4  2  0  0  0  0
  3 23  1  0  0  0  0
  4  5  1  0  0  0  0
  4 24  1  0  0  0  0
  5  6  1  0  0  0  0
  5 20  2  0  0  0  0
  6  7  1  0  0  0  0
  7  8  1  0  0  0  0
  7 15  2  0  0  0  0
  8  9  2  0  0  0  0
  9 10  1  0  0  0  0
  9 25  1  0  0  0  0
 10 11  2  0  0  0  0
 11 12  1  0  0  0  0
 11 15  1  0  0  0  0
 12 13  1  0  0  0  0
 13 14  2  0  0  0  0
 13 19  1  0  0  0  0
 14 15  1  0  0  0  0
 14 16  1  0  0  0  0
 16 17  1  0  0  0  0
 16 26  1  0  0  0  0
 16 27  1  0  0  0  0
 17 18  1  0  0  0  0
 17 28  1  0  0  0  0
 17 29  1  0  0  0  0
 18 19  1  0  0  0  0
 18 30  1  0  0  0  0
 18 31  1  0  0  0  0
 19 32  1  0  0  0  0
 19 33  1  0  0  0  0
 20 21  1  0  0  0  0
 20 34  1  0  0  0  0
 21 22  1  0  0  0  0
M  END
$$$$
