CHEMBL3657545
 OpenBabel04072215373D

 57 61  0  0  0  0  0  0  0  0999 V2000
    2.2689   -1.4107   -1.5444 C   0  0  0  0  0  0  0  0  0  0  0  0
    2.7787   -0.1445   -0.9557 C   0  0  0  0  0  0  0  0  0  0  0  0
    4.0690    0.1926   -1.0850 N   0  0  0  0  0  0  0  0  0  0  0  0
    4.2036    1.3123   -0.3220 N   0  0  0  0  0  0  0  0  0  0  0  0
    5.4181    2.0614   -0.2417 C   0  0  0  0  0  0  0  0  0  0  0  0
    6.4626    1.7444   -1.0785 C   0  0  0  0  0  0  0  0  0  0  0  0
    7.5698    2.5442   -0.9563 C   0  0  0  0  0  0  0  0  0  0  0  0
    7.6691    3.5599   -0.0703 N   0  0  0  0  0  0  0  0  0  0  0  0
    6.5992    3.8202    0.6960 C   0  0  0  0  0  0  0  0  0  0  0  0
    6.7338    4.8881    1.5901 N   0  0  0  0  0  0  0  0  0  0  0  0
    5.7793    5.7022    2.2173 C   0  0  0  0  0  0  0  0  0  0  0  0
    6.1814    6.6082    3.2132 C   0  0  0  0  0  0  0  0  0  0  0  0
    5.2677    7.4114    3.9312 C   0  0  0  0  0  0  0  0  0  0  0  0
    3.9052    7.2768    3.6304 C   0  0  0  0  0  0  0  0  0  0  0  0
    3.4737    6.4024    2.6327 C   0  0  0  0  0  0  0  0  0  0  0  0
    4.4101    5.6067    1.9408 C   0  0  0  0  0  0  0  0  0  0  0  0
    2.0874    6.6176    2.5596 C   0  0  0  0  0  0  0  0  0  0  0  0
    1.0087    6.0495    1.4067 Cl  0  0  0  0  0  0  0  0  0  0  0  0
    1.6349    7.4350    3.4964 N   0  0  0  0  0  0  0  0  0  0  0  0
    2.7526    7.8736    4.1007 N   0  0  0  0  0  0  0  0  0  0  0  0
    2.5802    8.9449    5.0786 C   0  0  0  0  0  0  0  0  0  0  0  0
    1.8519   10.1319    4.4343 C   0  0  0  0  0  0  0  0  0  0  0  0
    1.7976    8.4456    6.2953 C   0  0  0  0  0  0  0  0  0  0  0  0
    5.4684    3.0971    0.6349 N   0  0  0  0  0  0  0  0  0  0  0  0
    3.0365    1.5977    0.3461 C   0  0  0  0  0  0  0  0  0  0  0  0
    2.0434    0.7931   -0.1820 C   0  0  0  0  0  0  0  0  0  0  0  0
    0.5676    0.7669    0.1041 C   0  0  0  0  0  0  0  0  0  0  0  0
   -0.1373    1.9776   -0.3644 N   0  0  0  0  0  0  0  0  0  0  0  0
    0.2372    3.2234    0.3412 C   0  0  0  0  0  0  0  0  0  0  0  0
   -0.7806    2.9085    1.4583 C   0  0  0  0  0  0  0  0  0  0  0  0
   -0.3078    2.1795    2.6202 O   0  0  0  0  0  0  0  0  0  0  0  0
   -1.4640    2.0841    0.3359 C   0  0  0  0  0  0  0  0  0  0  0  0
    3.0860   -2.0687   -1.8551 H   0  0  0  0  0  0  0  0  0  0  0  0
    1.6271   -1.2095   -2.4061 H   0  0  0  0  0  0  0  0  0  0  0  0
    1.6805   -1.9556   -0.7963 H   0  0  0  0  0  0  0  0  0  0  0  0
    6.4118    0.9477   -1.8090 H   0  0  0  0  0  0  0  0  0  0  0  0
    8.4338    2.4003   -1.5993 H   0  0  0  0  0  0  0  0  0  0  0  0
    7.6743    5.2532    1.5291 H   0  0  0  0  0  0  0  0  0  0  0  0
    7.2399    6.7009    3.4557 H   0  0  0  0  0  0  0  0  0  0  0  0
    5.6225    8.1076    4.6834 H   0  0  0  0  0  0  0  0  0  0  0  0
    4.0428    4.9367    1.1713 H   0  0  0  0  0  0  0  0  0  0  0  0
    3.5778    9.2658    5.3941 H   0  0  0  0  0  0  0  0  0  0  0  0
    0.8569    9.8479    4.0675 H   0  0  0  0  0  0  0  0  0  0  0  0
    2.4148   10.5135    3.5747 H   0  0  0  0  0  0  0  0  0  0  0  0
    1.7144   10.9485    5.1487 H   0  0  0  0  0  0  0  0  0  0  0  0
    0.7913    8.1056    6.0189 H   0  0  0  0  0  0  0  0  0  0  0  0
    1.6821    9.2397    7.0401 H   0  0  0  0  0  0  0  0  0  0  0  0
    2.3080    7.6012    6.7715 H   0  0  0  0  0  0  0  0  0  0  0  0
    3.0277    2.3860    1.0833 H   0  0  0  0  0  0  0  0  0  0  0  0
    0.4143    0.5161    1.1556 H   0  0  0  0  0  0  0  0  0  0  0  0
    0.1196   -0.0605   -0.4598 H   0  0  0  0  0  0  0  0  0  0  0  0
   -0.0312    4.1124   -0.2458 H   0  0  0  0  0  0  0  0  0  0  0  0
    1.2683    3.3534    0.6536 H   0  0  0  0  0  0  0  0  0  0  0  0
   -1.3508    3.7781    1.8004 H   0  0  0  0  0  0  0  0  0  0  0  0
    0.6608    2.2718    2.6035 H   0  0  0  0  0  0  0  0  0  0  0  0
   -2.2003    2.6772   -0.2251 H   0  0  0  0  0  0  0  0  0  0  0  0
   -1.9388    1.1452    0.6310 H   0  0  0  0  0  0  0  0  0  0  0  0
  1  2  1  0  0  0  0
  1 33  1  0  0  0  0
  1 34  1  0  0  0  0
  1 35  1  0  0  0  0
  2  3  2  0  0  0  0
  2 26  1  0  0  0  0
  3  4  1  0  0  0  0
  4  5  1  0  0  0  0
  4 25  1  0  0  0  0
  5  6  1  0  0  0  0
  5 24  2  0  0  0  0
  6  7  2  0  0  0  0
  6 36  1  0  0  0  0
  7  8  1  0  0  0  0
  7 37  1  0  0  0  0
  8  9  2  0  0  0  0
  9 10  1  0  0  0  0
  9 24  1  0  0  0  0
 10 11  1  0  0  0  0
 10 38  1  0  0  0  0
 11 12  1  0  0  0  0
 11 16  2  0  0  0  0
 12 13  2  0  0  0  0
 12 39  1  0  0  0  0
 13 14  1  0  0  0  0
 13 40  1  0  0  0  0
 14 15  2  0  0  0  0
 14 20  1  0  0  0  0
 15 16  1  0  0  0  0
 15 17  1  0  0  0  0
 16 41  1  0  0  0  0
 17 18  1  0  0  0  0
 17 19  2  0  0  0  0
 19 20  1  0  0  0  0
 20 21  1  0  0  0  0
 21 22  1  0  0  0  0
 21 23  1  0  0  0  0
 21 42  1  0  0  0  0
 22 43  1  0  0  0  0
 22 44  1  0  0  0  0
 22 45  1  0  0  0  0
 23 46  1  0  0  0  0
 23 47  1  0  0  0  0
 23 48  1  0  0  0  0
 25 26  2  0  0  0  0
 25 49  1  0  0  0  0
 26 27  1  0  0  0  0
 27 28  1  0  0  0  0
 27 50  1  0  0  0  0
 27 51  1  0  0  0  0
 28 29  1  0  0  0  0
 28 32  1  0  0  0  0
 29 30  1  0  0  0  0
 29 52  1  0  0  0  0
 29 53  1  0  0  0  0
 30 31  1  0  0  0  0
 30 32  1  0  0  0  0
 30 54  1  0  0  0  0
 31 55  1  0  0  0  0
 32 56  1  0  0  0  0
 32 57  1  0  0  0  0
M  END
$$$$
