CHEMBL411630
 OpenBabel04072215383D

 60 64  0  0  0  0  0  0  0  0999 V2000
   10.4949    2.1288   -0.1078 C   0  0  0  0  0  0  0  0  0  0  0  0
    9.6646    3.1825   -0.6093 O   0  0  0  0  0  0  0  0  0  0  0  0
    8.7788    3.7158    0.2914 C   0  0  0  0  0  0  0  0  0  0  0  0
    9.0915    3.7745    1.6592 C   0  0  0  0  0  0  0  0  0  0  0  0
    8.1803    4.1879    2.6197 C   0  0  0  0  0  0  0  0  0  0  0  0
    8.5660    4.1301    3.9056 N   0  0  0  0  0  0  0  0  0  0  0  0
    7.6805    4.4970    4.8511 C   0  0  0  0  0  0  0  0  0  0  0  0
    6.3986    4.9152    4.5726 C   0  0  0  0  0  0  0  0  0  0  0  0
    5.9898    4.9223    3.2439 C   0  0  0  0  0  0  0  0  0  0  0  0
    4.6932    5.2512    2.8962 O   0  0  0  0  0  0  0  0  0  0  0  0
    3.6562    4.8066    3.6947 C   0  0  0  0  0  0  0  0  0  0  0  0
    2.5584    5.6509    3.8164 C   0  0  0  0  0  0  0  0  0  0  0  0
    1.4526    5.2708    4.5910 C   0  0  0  0  0  0  0  0  0  0  0  0
    1.4013    4.0288    5.2440 C   0  0  0  0  0  0  0  0  0  0  0  0
    2.5323    3.1967    5.1245 C   0  0  0  0  0  0  0  0  0  0  0  0
    3.6331    3.5692    4.3404 C   0  0  0  0  0  0  0  0  0  0  0  0
    2.6634    1.9760    5.7444 O   0  0  0  0  0  0  0  0  0  0  0  0
    1.4087    1.4171    6.1258 C   0  0  0  0  0  0  0  0  0  0  0  0
    0.5540    2.4260    6.8721 C   0  0  0  0  0  0  0  0  0  0  0  0
    0.2550    3.5777    6.0095 N   0  0  0  0  0  0  0  0  0  0  0  0
   -1.0236    4.1162    5.8059 C   0  0  0  0  0  0  0  0  0  0  0  0
   -1.2447    4.9887    4.9658 O   0  0  0  0  0  0  0  0  0  0  0  0
   -2.0421    3.5804    6.5806 N   0  0  0  0  0  0  0  0  0  0  0  0
   -3.4237    3.8910    6.4608 C   0  0  0  0  0  0  0  0  0  0  0  0
   -3.9702    4.5937    5.3832 C   0  0  0  0  0  0  0  0  0  0  0  0
   -5.3128    4.9823    5.3807 C   0  0  0  0  0  0  0  0  0  0  0  0
   -6.1492    4.6449    6.4441 C   0  0  0  0  0  0  0  0  0  0  0  0
   -7.5632    5.1412    6.4886 C   0  0  0  0  0  0  0  0  0  0  0  0
   -5.6324    3.8654    7.4841 C   0  0  0  0  0  0  0  0  0  0  0  0
   -4.2820    3.4876    7.4900 C   0  0  0  0  0  0  0  0  0  0  0  0
    6.9092    4.6074    2.2162 C   0  0  0  0  0  0  0  0  0  0  0  0
    6.6310    4.6719    0.8259 C   0  0  0  0  0  0  0  0  0  0  0  0
    7.5510    4.2286   -0.1410 C   0  0  0  0  0  0  0  0  0  0  0  0
    7.0606    4.3543   -1.4109 O   0  0  0  0  0  0  0  0  0  0  0  0
    7.7740    3.8154   -2.5121 C   0  0  0  0  0  0  0  0  0  0  0  0
   10.6486    1.4028   -0.9105 H   0  0  0  0  0  0  0  0  0  0  0  0
   10.0503    1.5798    0.7316 H   0  0  0  0  0  0  0  0  0  0  0  0
   11.4699    2.5355    0.1789 H   0  0  0  0  0  0  0  0  0  0  0  0
   10.0712    3.4668    2.0156 H   0  0  0  0  0  0  0  0  0  0  0  0
    8.0363    4.4214    5.8747 H   0  0  0  0  0  0  0  0  0  0  0  0
    5.7339    5.1947    5.3823 H   0  0  0  0  0  0  0  0  0  0  0  0
    2.5514    6.6154    3.3142 H   0  0  0  0  0  0  0  0  0  0  0  0
    0.6498    5.9974    4.6753 H   0  0  0  0  0  0  0  0  0  0  0  0
    4.4600    2.8722    4.2395 H   0  0  0  0  0  0  0  0  0  0  0  0
    1.6172    0.5600    6.7746 H   0  0  0  0  0  0  0  0  0  0  0  0
    0.8968    1.0409    5.2319 H   0  0  0  0  0  0  0  0  0  0  0  0
    1.0864    2.8183    7.7483 H   0  0  0  0  0  0  0  0  0  0  0  0
   -0.3475    1.9215    7.2220 H   0  0  0  0  0  0  0  0  0  0  0  0
   -1.7833    3.1394    7.4466 H   0  0  0  0  0  0  0  0  0  0  0  0
   -3.3748    4.8813    4.5228 H   0  0  0  0  0  0  0  0  0  0  0  0
   -5.6844    5.5709    4.5447 H   0  0  0  0  0  0  0  0  0  0  0  0
   -7.8180    5.7058    5.5848 H   0  0  0  0  0  0  0  0  0  0  0  0
   -7.6943    5.8114    7.3449 H   0  0  0  0  0  0  0  0  0  0  0  0
   -8.2623    4.3045    6.5713 H   0  0  0  0  0  0  0  0  0  0  0  0
   -6.2740    3.5686    8.3110 H   0  0  0  0  0  0  0  0  0  0  0  0
   -3.9150    2.8985    8.3255 H   0  0  0  0  0  0  0  0  0  0  0  0
    5.6724    5.0621    0.4848 H   0  0  0  0  0  0  0  0  0  0  0  0
    7.0782    3.7844   -3.3586 H   0  0  0  0  0  0  0  0  0  0  0  0
    8.0968    2.7853   -2.3426 H   0  0  0  0  0  0  0  0  0  0  0  0
    8.6065    4.4663   -2.7968 H   0  0  0  0  0  0  0  0  0  0  0  0
  1  2  1  0  0  0  0
  1 36  1  0  0  0  0
  1 37  1  0  0  0  0
  1 38  1  0  0  0  0
  2  3  1  0  0  0  0
  3  4  1  0  0  0  0
  3 33  2  0  0  0  0
  4  5  2  0  0  0  0
  4 39  1  0  0  0  0
  5  6  1  0  0  0  0
  5 31  1  0  0  0  0
  6  7  2  0  0  0  0
  7  8  1  0  0  0  0
  7 40  1  0  0  0  0
  8  9  2  0  0  0  0
  8 41  1  0  0  0  0
  9 10  1  0  0  0  0
  9 31  1  0  0  0  0
 10 11  1  0  0  0  0
 11 12  1  0  0  0  0
 11 16  2  0  0  0  0
 12 13  2  0  0  0  0
 12 42  1  0  0  0  0
 13 14  1  0  0  0  0
 13 43  1  0  0  0  0
 14 15  2  0  0  0  0
 14 20  1  0  0  0  0
 15 16  1  0  0  0  0
 15 17  1  0  0  0  0
 16 44  1  0  0  0  0
 17 18  1  0  0  0  0
 18 19  1  0  0  0  0
 18 45  1  0  0  0  0
 18 46  1  0  0  0  0
 19 20  1  0  0  0  0
 19 47  1  0  0  0  0
 19 48  1  0  0  0  0
 20 21  1  0  0  0  0
 21 22  2  0  0  0  0
 21 23  1  0  0  0  0
 23 24  1  0  0  0  0
 23 49  1  0  0  0  0
 24 25  1  0  0  0  0
 24 30  2  0  0  0  0
 25 26  2  0  0  0  0
 25 50  1  0  0  0  0
 26 27  1  0  0  0  0
 26 51  1  0  0  0  0
 27 28  1  0  0  0  0
 27 29  2  0  0  0  0
 28 52  1  0  0  0  0
 28 53  1  0  0  0  0
 28 54  1  0  0  0  0
 29 30  1  0  0  0  0
 29 55  1  0  0  0  0
 30 56  1  0  0  0  0
 31 32  2  0  0  0  0
 32 33  1  0  0  0  0
 32 57  1  0  0  0  0
 33 34  1  0  0  0  0
 34 35  1  0  0  0  0
 35 58  1  0  0  0  0
 35 59  1  0  0  0  0
 35 60  1  0  0  0  0
M  END
$$$$
