CHEMBL3690423
 OpenBabel04072215373D

 45 48  0  0  0  0  0  0  0  0999 V2000
    2.5901   -1.3244    0.7228 O   0  0  0  0  0  0  0  0  0  0  0  0
    2.3059   -0.5575   -0.1868 C   0  0  0  0  0  0  0  0  0  0  0  0
    1.0070   -0.1378   -0.3913 N   0  0  0  0  0  0  0  0  0  0  0  0
   -0.0571   -0.7664    0.3999 C   0  0  0  0  0  0  0  0  0  0  0  0
   -0.5764   -2.0966   -0.1631 C   0  0  0  0  0  0  0  0  0  0  0  0
    0.0178   -2.4114   -1.3385 F   0  0  0  0  0  0  0  0  0  0  0  0
   -0.3945   -3.1246    0.6892 F   0  0  0  0  0  0  0  0  0  0  0  0
   -1.9063   -2.0041   -0.4134 F   0  0  0  0  0  0  0  0  0  0  0  0
    3.1646    0.0015   -1.1021 N   0  0  0  0  0  0  0  0  0  0  0  0
    4.5597   -0.1929   -1.1883 C   0  0  0  0  0  0  0  0  0  0  0  0
    5.2952   -0.9765   -0.3030 C   0  0  0  0  0  0  0  0  0  0  0  0
    6.6835   -1.0665   -0.4238 C   0  0  0  0  0  0  0  0  0  0  0  0
    7.3483   -0.3721   -1.4330 C   0  0  0  0  0  0  0  0  0  0  0  0
    6.6313    0.3959   -2.3568 C   0  0  0  0  0  0  0  0  0  0  0  0
    7.3381    1.0677   -3.4525 C   0  0  0  0  0  0  0  0  0  0  0  0
    8.4735    0.6674   -4.1429 C   0  0  0  0  0  0  0  0  0  0  0  0
    8.7982    1.5302   -5.1526 N   0  0  0  0  0  0  0  0  0  0  0  0
    7.8902    2.4780   -5.0947 C   0  0  0  0  0  0  0  0  0  0  0  0
    7.7165    3.6372   -5.9011 C   0  0  0  0  0  0  0  0  0  0  0  0
    6.7178    4.5208   -5.6540 C   0  0  0  0  0  0  0  0  0  0  0  0
    6.5944    5.7336   -6.4992 C   0  0  0  0  0  0  0  0  0  0  0  0
    7.4949    5.9208   -7.4862 N   0  0  0  0  0  0  0  0  0  0  0  0
    7.3705    7.0536   -8.2070 C   0  0  0  0  0  0  0  0  0  0  0  0
    6.3920    7.9864   -7.9783 C   0  0  0  0  0  0  0  0  0  0  0  0
    6.2902    9.1052   -8.7102 F   0  0  0  0  0  0  0  0  0  0  0  0
    5.5193    7.7105   -6.9574 C   0  0  0  0  0  0  0  0  0  0  0  0
    5.5959    6.5944   -6.2023 N   0  0  0  0  0  0  0  0  0  0  0  0
    5.8108    4.2683   -4.5267 C   0  0  0  0  0  0  0  0  0  0  0  0
    5.9840    3.1891   -3.7511 C   0  0  0  0  0  0  0  0  0  0  0  0
    6.9965    2.2758   -4.0473 N   0  0  0  0  0  0  0  0  0  0  0  0
    5.2332    0.4547   -2.2313 C   0  0  0  0  0  0  0  0  0  0  0  0
    0.7674    0.0886   -1.3464 H   0  0  0  0  0  0  0  0  0  0  0  0
   -0.8740   -0.0398    0.4474 H   0  0  0  0  0  0  0  0  0  0  0  0
    0.3006   -0.9188    1.4247 H   0  0  0  0  0  0  0  0  0  0  0  0
    2.7619    0.6771   -1.7336 H   0  0  0  0  0  0  0  0  0  0  0  0
    4.8219   -1.5306    0.4995 H   0  0  0  0  0  0  0  0  0  0  0  0
    7.2444   -1.6796    0.2767 H   0  0  0  0  0  0  0  0  0  0  0  0
    8.4321   -0.4471   -1.4902 H   0  0  0  0  0  0  0  0  0  0  0  0
    9.0640   -0.2249   -3.9752 H   0  0  0  0  0  0  0  0  0  0  0  0
    8.4282    3.7768   -6.7088 H   0  0  0  0  0  0  0  0  0  0  0  0
    8.1050    7.1943   -8.9936 H   0  0  0  0  0  0  0  0  0  0  0  0
    4.7164    8.3970   -6.7079 H   0  0  0  0  0  0  0  0  0  0  0  0
    5.0139    4.9776   -4.3243 H   0  0  0  0  0  0  0  0  0  0  0  0
    5.3566    3.0115   -2.8910 H   0  0  0  0  0  0  0  0  0  0  0  0
    4.6467    0.9876   -2.9728 H   0  0  0  0  0  0  0  0  0  0  0  0
  1  2  2  0  0  0  0
  2  3  1  0  0  0  0
  2  9  1  0  0  0  0
  3  4  1  0  0  0  0
  3 32  1  0  0  0  0
  4  5  1  0  0  0  0
  4 33  1  0  0  0  0
  4 34  1  0  0  0  0
  5  6  1  0  0  0  0
  5  7  1  0  0  0  0
  5  8  1  0  0  0  0
  9 10  1  0  0  0  0
  9 35  1  0  0  0  0
 10 11  1  0  0  0  0
 10 31  2  0  0  0  0
 11 12  2  0  0  0  0
 11 36  1  0  0  0  0
 12 13  1  0  0  0  0
 12 37  1  0  0  0  0
 13 14  2  0  0  0  0
 13 38  1  0  0  0  0
 14 15  1  0  0  0  0
 14 31  1  0  0  0  0
 15 16  2  0  0  0  0
 15 30  1  0  0  0  0
 16 17  1  0  0  0  0
 16 39  1  0  0  0  0
 17 18  2  0  0  0  0
 18 19  1  0  0  0  0
 18 30  1  0  0  0  0
 19 20  2  0  0  0  0
 19 40  1  0  0  0  0
 20 21  1  0  0  0  0
 20 28  1  0  0  0  0
 21 22  1  0  0  0  0
 21 27  2  0  0  0  0
 22 23  2  0  0  0  0
 23 24  1  0  0  0  0
 23 41  1  0  0  0  0
 24 25  1  0  0  0  0
 24 26  2  0  0  0  0
 26 27  1  0  0  0  0
 26 42  1  0  0  0  0
 28 29  2  0  0  0  0
 28 43  1  0  0  0  0
 29 30  1  0  0  0  0
 29 44  1  0  0  0  0
 31 45  1  0  0  0  0
M  END
$$$$
