CHEMBL3671480
 OpenBabel04072215373D

 49 52  0  0  0  0  0  0  0  0999 V2000
    4.8727   -1.5902   -3.4725 C   0  0  0  0  0  0  0  0  0  0  0  0
    4.3745   -0.4524   -2.9808 C   0  0  0  0  0  0  0  0  0  0  0  0
    4.1693   -0.2523   -1.5111 C   0  0  0  0  0  0  0  0  0  0  0  0
    3.6605   -1.1220   -0.8186 O   0  0  0  0  0  0  0  0  0  0  0  0
    4.5074    0.9905   -1.0109 N   0  0  0  0  0  0  0  0  0  0  0  0
    5.2525    1.9620   -1.7029 C   0  0  0  0  0  0  0  0  0  0  0  0
    6.3909    1.5402   -2.3995 C   0  0  0  0  0  0  0  0  0  0  0  0
    6.9756    2.3586   -3.3758 C   0  0  0  0  0  0  0  0  0  0  0  0
    7.9680    1.9267   -4.2702 C   0  0  0  0  0  0  0  0  0  0  0  0
    8.3554    0.5713   -4.2733 N   0  0  0  0  0  0  0  0  0  0  0  0
    9.6242    0.0360   -4.5569 C   0  0  0  0  0  0  0  0  0  0  0  0
   10.7886    0.7771   -4.3331 C   0  0  0  0  0  0  0  0  0  0  0  0
   12.0440    0.1676   -4.4115 C   0  0  0  0  0  0  0  0  0  0  0  0
   12.1421   -1.1889   -4.7198 C   0  0  0  0  0  0  0  0  0  0  0  0
   13.8321   -2.0325   -4.6928 Br  0  0  0  0  0  0  0  0  0  0  0  0
   10.9988   -1.9333   -4.9980 C   0  0  0  0  0  0  0  0  0  0  0  0
    9.7552   -1.3167   -4.9066 C   0  0  0  0  0  0  0  0  0  0  0  0
    8.6503   -2.0451   -5.1373 F   0  0  0  0  0  0  0  0  0  0  0  0
    8.5016    2.7549   -5.1812 N   0  0  0  0  0  0  0  0  0  0  0  0
    8.0388    4.0043   -5.2016 C   0  0  0  0  0  0  0  0  0  0  0  0
    7.0846    4.5090   -4.4047 N   0  0  0  0  0  0  0  0  0  0  0  0
    6.5602    3.6787   -3.4975 C   0  0  0  0  0  0  0  0  0  0  0  0
    5.5386    4.1378   -2.6817 C   0  0  0  0  0  0  0  0  0  0  0  0
    4.8243    3.2867   -1.8098 C   0  0  0  0  0  0  0  0  0  0  0  0
    3.6713    3.6560   -1.1480 O   0  0  0  0  0  0  0  0  0  0  0  0
    3.0542    4.8511   -1.6568 C   0  0  0  0  0  0  0  0  0  0  0  0
    1.6664    5.1294   -1.1245 C   0  0  0  0  0  0  0  0  0  0  0  0
    1.0981    4.4472   -0.0589 C   0  0  0  0  0  0  0  0  0  0  0  0
   -0.1702    4.8110    0.3599 C   0  0  0  0  0  0  0  0  0  0  0  0
   -0.9055    5.7993   -0.1980 N   0  0  0  0  0  0  0  0  0  0  0  0
   -0.3356    6.4556   -1.2319 C   0  0  0  0  0  0  0  0  0  0  0  0
    0.9299    6.1600   -1.7181 C   0  0  0  0  0  0  0  0  0  0  0  0
    5.0687   -1.6974   -4.5347 H   0  0  0  0  0  0  0  0  0  0  0  0
    5.1034   -2.4318   -2.8235 H   0  0  0  0  0  0  0  0  0  0  0  0
    4.1544    0.3872   -3.6342 H   0  0  0  0  0  0  0  0  0  0  0  0
    4.0616    1.2458   -0.1392 H   0  0  0  0  0  0  0  0  0  0  0  0
    6.7785    0.5360   -2.2373 H   0  0  0  0  0  0  0  0  0  0  0  0
    7.5914   -0.0405   -4.5478 H   0  0  0  0  0  0  0  0  0  0  0  0
   10.7333    1.8236   -4.0561 H   0  0  0  0  0  0  0  0  0  0  0  0
   12.9341    0.7556   -4.1944 H   0  0  0  0  0  0  0  0  0  0  0  0
   11.0560   -2.9862   -5.2498 H   0  0  0  0  0  0  0  0  0  0  0  0
    8.4372    4.6689   -5.9602 H   0  0  0  0  0  0  0  0  0  0  0  0
    5.2494    5.1763   -2.8101 H   0  0  0  0  0  0  0  0  0  0  0  0
    2.9634    4.7715   -2.7489 H   0  0  0  0  0  0  0  0  0  0  0  0
    3.6779    5.7127   -1.3859 H   0  0  0  0  0  0  0  0  0  0  0  0
    1.6290    3.6421    0.4484 H   0  0  0  0  0  0  0  0  0  0  0  0
   -0.6474    4.3000    1.1918 H   0  0  0  0  0  0  0  0  0  0  0  0
   -0.9409    7.2508   -1.6647 H   0  0  0  0  0  0  0  0  0  0  0  0
    1.3229    6.7435   -2.5538 H   0  0  0  0  0  0  0  0  0  0  0  0
  1  2  2  0  0  0  0
  1 33  1  0  0  0  0
  1 34  1  0  0  0  0
  2  3  1  0  0  0  0
  2 35  1  0  0  0  0
  3  4  2  0  0  0  0
  3  5  1  0  0  0  0
  5  6  1  0  0  0  0
  5 36  1  0  0  0  0
  6  7  1  0  0  0  0
  6 24  2  0  0  0  0
  7  8  2  0  0  0  0
  7 37  1  0  0  0  0
  8  9  1  0  0  0  0
  8 22  1  0  0  0  0
  9 10  1  0  0  0  0
  9 19  2  0  0  0  0
 10 11  1  0  0  0  0
 10 38  1  0  0  0  0
 11 12  1  0  0  0  0
 11 17  2  0  0  0  0
 12 13  2  0  0  0  0
 12 39  1  0  0  0  0
 13 14  1  0  0  0  0
 13 40  1  0  0  0  0
 14 15  1  0  0  0  0
 14 16  2  0  0  0  0
 16 17  1  0  0  0  0
 16 41  1  0  0  0  0
 17 18  1  0  0  0  0
 19 20  1  0  0  0  0
 20 21  2  0  0  0  0
 20 42  1  0  0  0  0
 21 22  1  0  0  0  0
 22 23  2  0  0  0  0
 23 24  1  0  0  0  0
 23 43  1  0  0  0  0
 24 25  1  0  0  0  0
 25 26  1  0  0  0  0
 26 27  1  0  0  0  0
 26 44  1  0  0  0  0
 26 45  1  0  0  0  0
 27 28  1  0  0  0  0
 27 32  2  0  0  0  0
 28 29  2  0  0  0  0
 28 46  1  0  0  0  0
 29 30  1  0  0  0  0
 29 47  1  0  0  0  0
 30 31  2  0  0  0  0
 31 32  1  0  0  0  0
 31 48  1  0  0  0  0
 32 49  1  0  0  0  0
M  END
$$$$
