CHEMBL121405
 OpenBabel04072215363D

 61 65  0  0  0  0  0  0  0  0999 V2000
   -1.6439    0.6248    0.5338 O   0  0  0  0  0  0  0  0  0  0  0  0
   -1.0637    0.0436   -0.6535 C   0  0  0  0  0  0  0  0  0  0  0  0
   -2.1074    0.1488   -1.7374 C   0  0  0  0  0  0  0  0  0  0  0  0
   -3.0531    1.0625   -1.8606 N   0  0  0  0  0  0  0  0  0  0  0  0
   -3.6806    0.7356   -3.0449 C   0  0  0  0  0  0  0  0  0  0  0  0
   -4.7980    1.4931   -3.5834 C   0  0  0  0  0  0  0  0  0  0  0  0
   -4.9612    1.6769   -4.9678 C   0  0  0  0  0  0  0  0  0  0  0  0
   -6.1075    2.2926   -5.4726 C   0  0  0  0  0  0  0  0  0  0  0  0
   -7.0666    2.7750   -4.5923 C   0  0  0  0  0  0  0  0  0  0  0  0
   -8.1749    3.3491   -5.0767 F   0  0  0  0  0  0  0  0  0  0  0  0
   -6.8933    2.6662   -3.2179 C   0  0  0  0  0  0  0  0  0  0  0  0
   -5.7585    2.0258   -2.7123 C   0  0  0  0  0  0  0  0  0  0  0  0
   -3.1095   -0.4049   -3.5847 C   0  0  0  0  0  0  0  0  0  0  0  0
   -3.3312   -1.2869   -4.7295 C   0  0  0  0  0  0  0  0  0  0  0  0
   -4.6075   -1.5183   -5.2398 C   0  0  0  0  0  0  0  0  0  0  0  0
   -4.7379   -2.3509   -6.3362 C   0  0  0  0  0  0  0  0  0  0  0  0
   -3.7079   -3.0050   -6.9100 N   0  0  0  0  0  0  0  0  0  0  0  0
   -2.4807   -2.8104   -6.3972 C   0  0  0  0  0  0  0  0  0  0  0  0
   -1.3951   -3.5306   -6.8666 N   0  0  0  0  0  0  0  0  0  0  0  0
   -1.5954   -4.7698   -7.6065 C   0  0  0  0  0  0  0  0  0  0  0  0
   -0.6385   -5.7904   -6.9637 C   0  0  0  0  0  0  0  0  0  0  0  0
   -0.4947   -7.0724   -7.7675 C   0  0  0  0  0  0  0  0  0  0  0  0
   -0.1031   -6.7677   -9.2061 C   0  0  0  0  0  0  0  0  0  0  0  0
   -1.1442   -5.8680   -9.8651 C   0  0  0  0  0  0  0  0  0  0  0  0
   -1.3195   -4.5535   -9.0990 C   0  0  0  0  0  0  0  0  0  0  0  0
   -2.2591   -1.9422   -5.3335 C   0  0  0  0  0  0  0  0  0  0  0  0
   -2.0733   -0.7633   -2.7535 O   0  0  0  0  0  0  0  0  0  0  0  0
    0.1701    0.8651   -1.0375 C   0  0  0  0  0  0  0  0  0  0  0  0
    1.2923    0.6935   -0.0191 C   0  0  0  0  0  0  0  0  0  0  0  0
    1.6331   -0.7184    0.1523 N   0  0  0  0  0  0  0  0  0  0  0  0
    0.4798   -1.4696    0.6528 C   0  0  0  0  0  0  0  0  0  0  0  0
   -0.6857   -1.4069   -0.3309 C   0  0  0  0  0  0  0  0  0  0  0  0
   -2.2086    1.3617    0.2258 H   0  0  0  0  0  0  0  0  0  0  0  0
   -4.2117    1.3202   -5.6716 H   0  0  0  0  0  0  0  0  0  0  0  0
   -6.2591    2.3888   -6.5431 H   0  0  0  0  0  0  0  0  0  0  0  0
   -7.6480    3.0658   -2.5479 H   0  0  0  0  0  0  0  0  0  0  0  0
   -5.6362    1.9249   -1.6355 H   0  0  0  0  0  0  0  0  0  0  0  0
   -5.4954   -1.0725   -4.8052 H   0  0  0  0  0  0  0  0  0  0  0  0
   -5.7084   -2.5280   -6.7912 H   0  0  0  0  0  0  0  0  0  0  0  0
   -0.6218   -2.9489   -7.1656 H   0  0  0  0  0  0  0  0  0  0  0  0
   -2.6141   -5.1622   -7.4893 H   0  0  0  0  0  0  0  0  0  0  0  0
   -0.9956   -6.0316   -5.9536 H   0  0  0  0  0  0  0  0  0  0  0  0
    0.3543   -5.3394   -6.8344 H   0  0  0  0  0  0  0  0  0  0  0  0
   -1.4383   -7.6303   -7.7479 H   0  0  0  0  0  0  0  0  0  0  0  0
    0.2652   -7.7094   -7.3010 H   0  0  0  0  0  0  0  0  0  0  0  0
   -0.0047   -7.7026   -9.7679 H   0  0  0  0  0  0  0  0  0  0  0  0
    0.8774   -6.2751   -9.2260 H   0  0  0  0  0  0  0  0  0  0  0  0
   -2.1025   -6.3983   -9.9146 H   0  0  0  0  0  0  0  0  0  0  0  0
   -0.8432   -5.6561  -10.8976 H   0  0  0  0  0  0  0  0  0  0  0  0
   -2.1447   -3.9849   -9.5495 H   0  0  0  0  0  0  0  0  0  0  0  0
   -0.4184   -3.9469   -9.2370 H   0  0  0  0  0  0  0  0  0  0  0  0
   -1.2517   -1.8230   -4.9452 H   0  0  0  0  0  0  0  0  0  0  0  0
   -0.0858    1.9311   -1.0968 H   0  0  0  0  0  0  0  0  0  0  0  0
    0.5314    0.5649   -2.0303 H   0  0  0  0  0  0  0  0  0  0  0  0
    1.0170    1.1410    0.9427 H   0  0  0  0  0  0  0  0  0  0  0  0
    2.1809    1.2286   -0.3752 H   0  0  0  0  0  0  0  0  0  0  0  0
    2.3930   -0.7944    0.8293 H   0  0  0  0  0  0  0  0  0  0  0  0
    0.1803   -1.0973    1.6405 H   0  0  0  0  0  0  0  0  0  0  0  0
    0.7771   -2.5162    0.7885 H   0  0  0  0  0  0  0  0  0  0  0  0
   -1.5407   -1.9392    0.1049 H   0  0  0  0  0  0  0  0  0  0  0  0
   -0.4025   -1.9450   -1.2442 H   0  0  0  0  0  0  0  0  0  0  0  0
  1  2  1  0  0  0  0
  1 33  1  0  0  0  0
  2  3  1  0  0  0  0
  2 28  1  0  0  0  0
  2 32  1  0  0  0  0
  3  4  2  0  0  0  0
  3 27  1  0  0  0  0
  4  5  1  0  0  0  0
  5  6  1  0  0  0  0
  5 13  2  0  0  0  0
  6  7  1  0  0  0  0
  6 12  2  0  0  0  0
  7  8  2  0  0  0  0
  7 34  1  0  0  0  0
  8  9  1  0  0  0  0
  8 35  1  0  0  0  0
  9 10  1  0  0  0  0
  9 11  2  0  0  0  0
 11 12  1  0  0  0  0
 11 36  1  0  0  0  0
 12 37  1  0  0  0  0
 13 14  1  0  0  0  0
 13 27  1  0  0  0  0
 14 15  1  0  0  0  0
 14 26  2  0  0  0  0
 15 16  2  0  0  0  0
 15 38  1  0  0  0  0
 16 17  1  0  0  0  0
 16 39  1  0  0  0  0
 17 18  2  0  0  0  0
 18 19  1  0  0  0  0
 18 26  1  0  0  0  0
 19 20  1  0  0  0  0
 19 40  1  0  0  0  0
 20 21  1  0  0  0  0
 20 25  1  0  0  0  0
 20 41  1  0  0  0  0
 21 22  1  0  0  0  0
 21 42  1  0  0  0  0
 21 43  1  0  0  0  0
 22 23  1  0  0  0  0
 22 44  1  0  0  0  0
 22 45  1  0  0  0  0
 23 24  1  0  0  0  0
 23 46  1  0  0  0  0
 23 47  1  0  0  0  0
 24 25  1  0  0  0  0
 24 48  1  0  0  0  0
 24 49  1  0  0  0  0
 25 50  1  0  0  0  0
 25 51  1  0  0  0  0
 26 52  1  0  0  0  0
 28 29  1  0  0  0  0
 28 53  1  0  0  0  0
 28 54  1  0  0  0  0
 29 30  1  0  0  0  0
 29 55  1  0  0  0  0
 29 56  1  0  0  0  0
 30 31  1  0  0  0  0
 30 57  1  0  0  0  0
 31 32  1  0  0  0  0
 31 58  1  0  0  0  0
 31 59  1  0  0  0  0
 32 60  1  0  0  0  0
 32 61  1  0  0  0  0
M  END
$$$$
