CHEMBL1241679
 OpenBabel04072215363D

 35 37  0  0  0  0  0  0  0  0999 V2000
    3.1911    0.1973    1.2082 C   0  0  0  0  0  0  0  0  0  0  0  0
    2.6073    0.0454   -0.1966 C   0  0  0  0  0  0  0  0  0  0  0  0
    1.0857   -0.1057   -0.1401 C   0  0  0  0  0  0  0  0  0  0  0  0
    2.9952    1.1501   -1.0684 N   0  0  0  0  0  0  0  0  0  0  0  0
    2.6280    2.4116   -0.7604 N   0  0  0  0  0  0  0  0  0  0  0  0
    3.0347    3.1482   -1.8106 C   0  0  0  0  0  0  0  0  0  0  0  0
    2.7155    4.5801   -1.8532 C   0  0  0  0  0  0  0  0  0  0  0  0
    2.4373    5.2243   -3.0639 C   0  0  0  0  0  0  0  0  0  0  0  0
    2.1744    6.5943   -3.1080 C   0  0  0  0  0  0  0  0  0  0  0  0
    2.1190    7.3265   -1.9259 C   0  0  0  0  0  0  0  0  0  0  0  0
    2.3294    6.6885   -0.6998 C   0  0  0  0  0  0  0  0  0  0  0  0
    2.1990    7.4293    0.5189 C   0  0  0  0  0  0  0  0  0  0  0  0
    2.0769    8.0410    1.4996 N   0  0  0  0  0  0  0  0  0  0  0  0
    2.6420    5.3238   -0.6643 C   0  0  0  0  0  0  0  0  0  0  0  0
    3.7459    2.3458   -2.7608 C   0  0  0  0  0  0  0  0  0  0  0  0
    4.4210    2.4939   -3.9815 C   0  0  0  0  0  0  0  0  0  0  0  0
    4.6245    3.6942   -4.6517 N   0  0  0  0  0  0  0  0  0  0  0  0
    4.9343    1.4012   -4.5793 N   0  0  0  0  0  0  0  0  0  0  0  0
    4.7887    0.2066   -3.9746 C   0  0  0  0  0  0  0  0  0  0  0  0
    4.1827   -0.0575   -2.8075 N   0  0  0  0  0  0  0  0  0  0  0  0
    3.6811    1.0596   -2.2481 C   0  0  0  0  0  0  0  0  0  0  0  0
    2.9046   -0.6503    1.8402 H   0  0  0  0  0  0  0  0  0  0  0  0
    2.8391    1.1126    1.6970 H   0  0  0  0  0  0  0  0  0  0  0  0
    4.2852    0.2372    1.1738 H   0  0  0  0  0  0  0  0  0  0  0  0
    3.0206   -0.8708   -0.6354 H   0  0  0  0  0  0  0  0  0  0  0  0
    0.6075    0.7818    0.2892 H   0  0  0  0  0  0  0  0  0  0  0  0
    0.8038   -0.9678    0.4736 H   0  0  0  0  0  0  0  0  0  0  0  0
    0.6703   -0.2549   -1.1427 H   0  0  0  0  0  0  0  0  0  0  0  0
    2.4035    4.6658   -3.9968 H   0  0  0  0  0  0  0  0  0  0  0  0
    1.9945    7.0797   -4.0637 H   0  0  0  0  0  0  0  0  0  0  0  0
    1.8885    8.3896   -1.9655 H   0  0  0  0  0  0  0  0  0  0  0  0
    2.8123    4.8327    0.2936 H   0  0  0  0  0  0  0  0  0  0  0  0
    4.7873    4.4942   -4.0509 H   0  0  0  0  0  0  0  0  0  0  0  0
    5.2963    3.5717   -5.4021 H   0  0  0  0  0  0  0  0  0  0  0  0
    5.2165   -0.6437   -4.4974 H   0  0  0  0  0  0  0  0  0  0  0  0
  1  2  1  0  0  0  0
  1 22  1  0  0  0  0
  1 23  1  0  0  0  0
  1 24  1  0  0  0  0
  2  3  1  0  0  0  0
  2  4  1  0  0  0  0
  2 25  1  0  0  0  0
  3 26  1  0  0  0  0
  3 27  1  0  0  0  0
  3 28  1  0  0  0  0
  4  5  1  0  0  0  0
  4 21  1  0  0  0  0
  5  6  2  0  0  0  0
  6  7  1  0  0  0  0
  6 15  1  0  0  0  0
  7  8  1  0  0  0  0
  7 14  2  0  0  0  0
  8  9  2  0  0  0  0
  8 29  1  0  0  0  0
  9 10  1  0  0  0  0
  9 30  1  0  0  0  0
 10 11  2  0  0  0  0
 10 31  1  0  0  0  0
 11 12  1  0  0  0  0
 11 14  1  0  0  0  0
 12 13  3  0  0  0  0
 14 32  1  0  0  0  0
 15 16  1  0  0  0  0
 15 21  2  0  0  0  0
 16 17  1  0  0  0  0
 16 18  2  0  0  0  0
 17 33  1  0  0  0  0
 17 34  1  0  0  0  0
 18 19  1  0  0  0  0
 19 20  2  0  0  0  0
 19 35  1  0  0  0  0
 20 21  1  0  0  0  0
M  END
$$$$
