CHEMBL3747669
 OpenBabel04072215373D

 59 63  0  0  1  0  0  0  0  0999 V2000
    4.4329   -1.5807    1.6508 C   0  0  0  0  0  0  0  0  0  0  0  0
    4.0234   -0.6859    0.4845 C   0  0  1  0  0  0  0  0  0  0  0  0
    4.4009    0.7781    0.7772 C   0  0  0  0  0  0  0  0  0  0  0  0
    4.2177    1.6518   -0.4264 C   0  0  0  0  0  0  0  0  0  0  0  0
    4.1345    1.1182   -1.7039 C   0  0  0  0  0  0  0  0  0  0  0  0
    3.9958    1.8862   -2.8074 N   0  0  0  0  0  0  0  0  0  0  0  0
    3.9362    3.2095   -2.6085 C   0  0  0  0  0  0  0  0  0  0  0  0
    4.0206    3.8291   -1.4292 N   0  0  0  0  0  0  0  0  0  0  0  0
    4.2018    3.0290   -0.3599 C   0  0  0  0  0  0  0  0  0  0  0  0
    4.3855    3.6106    0.8905 O   0  0  0  0  0  0  0  0  0  0  0  0
    5.0920    4.7933    0.9468 C   0  0  0  0  0  0  0  0  0  0  0  0
    6.1378    5.1027    0.0764 C   0  0  0  0  0  0  0  0  0  0  0  0
    6.7961    6.3301    0.1425 C   0  0  0  0  0  0  0  0  0  0  0  0
    6.4180    7.2306    1.1482 C   0  0  0  0  0  0  0  0  0  0  0  0
    5.4406    6.9012    2.0946 C   0  0  0  0  0  0  0  0  0  0  0  0
    5.3919    7.9594    3.0376 C   0  0  0  0  0  0  0  0  0  0  0  0
    6.3542    8.8735    2.6792 C   0  0  0  0  0  0  0  0  0  0  0  0
    6.9537    8.4714    1.4983 N   0  0  0  0  0  0  0  0  0  0  0  0
    8.0655    9.1033    0.8930 C   0  0  0  0  0  0  0  0  0  0  0  0
    8.9723    9.4909    1.6154 O   0  0  0  0  0  0  0  0  0  0  0  0
    7.9122    9.2716   -0.4623 N   0  0  0  0  0  0  0  0  0  0  0  0
    8.9568    9.8567   -1.1723 C   0  0  0  0  0  0  0  0  0  0  0  0
   10.2933    9.4006   -1.2171 C   0  0  0  0  0  0  0  0  0  0  0  0
   10.9619   10.2985   -2.0203 C   0  0  0  0  0  0  0  0  0  0  0  0
   12.3948   10.4313   -2.4898 C   0  0  0  0  0  0  0  0  0  0  0  0
   13.1854    9.1472   -2.1623 C   0  0  0  0  0  0  0  0  0  0  0  0
   12.4666   10.6524   -4.0125 C   0  0  0  0  0  0  0  0  0  0  0  0
   13.0864   11.6134   -1.7879 C   0  0  0  0  0  0  0  0  0  0  0  0
   10.0621   11.2386   -2.4398 O   0  0  0  0  0  0  0  0  0  0  0  0
    8.7915   10.9168   -1.9684 N   0  0  0  0  0  0  0  0  0  0  0  0
    4.7609    5.6677    1.9864 C   0  0  0  0  0  0  0  0  0  0  0  0
    4.1451   -0.3849   -1.9019 C   0  0  0  0  0  0  0  0  0  0  0  0
    4.6693   -1.1507   -0.7542 N   0  0  0  0  0  0  0  0  0  0  0  0
    3.9305   -1.2598    2.5702 H   0  0  0  0  0  0  0  0  0  0  0  0
    5.5133   -1.5456    1.8288 H   0  0  0  0  0  0  0  0  0  0  0  0
    4.1511   -2.6225    1.4645 H   0  0  0  0  0  0  0  0  0  0  0  0
    2.9341   -0.7682    0.3678 H   0  0  0  0  0  0  0  0  0  0  0  0
    5.4513    0.8434    1.0903 H   0  0  0  0  0  0  0  0  0  0  0  0
    3.7801    1.1436    1.6041 H   0  0  0  0  0  0  0  0  0  0  0  0
    3.8213    3.8374   -3.4850 H   0  0  0  0  0  0  0  0  0  0  0  0
    6.4526    4.3948   -0.6849 H   0  0  0  0  0  0  0  0  0  0  0  0
    7.6003    6.5480   -0.5537 H   0  0  0  0  0  0  0  0  0  0  0  0
    4.7596    8.0174    3.9153 H   0  0  0  0  0  0  0  0  0  0  0  0
    6.6681    9.7946    3.1545 H   0  0  0  0  0  0  0  0  0  0  0  0
    6.9905    9.5305   -0.7823 H   0  0  0  0  0  0  0  0  0  0  0  0
   10.7010    8.5192   -0.7476 H   0  0  0  0  0  0  0  0  0  0  0  0
   12.7582    8.2759   -2.6728 H   0  0  0  0  0  0  0  0  0  0  0  0
   13.1822    8.9364   -1.0864 H   0  0  0  0  0  0  0  0  0  0  0  0
   14.2327    9.2328   -2.4752 H   0  0  0  0  0  0  0  0  0  0  0  0
   12.0133    9.8191   -4.5611 H   0  0  0  0  0  0  0  0  0  0  0  0
   13.5087   10.7386   -4.3465 H   0  0  0  0  0  0  0  0  0  0  0  0
   11.9517   11.5707   -4.3165 H   0  0  0  0  0  0  0  0  0  0  0  0
   13.0713   11.4989   -0.6983 H   0  0  0  0  0  0  0  0  0  0  0  0
   12.6033   12.5667   -2.0300 H   0  0  0  0  0  0  0  0  0  0  0  0
   14.1371   11.6918   -2.0961 H   0  0  0  0  0  0  0  0  0  0  0  0
    4.0018    5.3900    2.7131 H   0  0  0  0  0  0  0  0  0  0  0  0
    4.7514   -0.6248   -2.7830 H   0  0  0  0  0  0  0  0  0  0  0  0
    3.1208   -0.7120   -2.1164 H   0  0  0  0  0  0  0  0  0  0  0  0
    5.6753   -0.9893   -0.6952 H   0  0  0  0  0  0  0  0  0  0  0  0
  1  2  1  0  0  0  0
  1 34  1  0  0  0  0
  1 35  1  0  0  0  0
  1 36  1  0  0  0  0
  2  3  1  0  0  0  0
  2 33  1  0  0  0  0
  2 37  1  6  0  0  0
  3  4  1  0  0  0  0
  3 38  1  0  0  0  0
  3 39  1  0  0  0  0
  4  5  1  0  0  0  0
  4  9  2  0  0  0  0
  5  6  2  0  0  0  0
  5 32  1  0  0  0  0
  6  7  1  0  0  0  0
  7  8  2  0  0  0  0
  7 40  1  0  0  0  0
  8  9  1  0  0  0  0
  9 10  1  0  0  0  0
 10 11  1  0  0  0  0
 11 12  1  0  0  0  0
 11 31  2  0  0  0  0
 12 13  2  0  0  0  0
 12 41  1  0  0  0  0
 13 14  1  0  0  0  0
 13 42  1  0  0  0  0
 14 15  2  0  0  0  0
 14 18  1  0  0  0  0
 15 16  1  0  0  0  0
 15 31  1  0  0  0  0
 16 17  2  0  0  0  0
 16 43  1  0  0  0  0
 17 18  1  0  0  0  0
 17 44  1  0  0  0  0
 18 19  1  0  0  0  0
 19 20  2  0  0  0  0
 19 21  1  0  0  0  0
 21 22  1  0  0  0  0
 21 45  1  0  0  0  0
 22 23  1  0  0  0  0
 22 30  2  0  0  0  0
 23 24  2  0  0  0  0
 23 46  1  0  0  0  0
 24 25  1  0  0  0  0
 24 29  1  0  0  0  0
 25 26  1  0  0  0  0
 25 27  1  0  0  0  0
 25 28  1  0  0  0  0
 26 47  1  0  0  0  0
 26 48  1  0  0  0  0
 26 49  1  0  0  0  0
 27 50  1  0  0  0  0
 27 51  1  0  0  0  0
 27 52  1  0  0  0  0
 28 53  1  0  0  0  0
 28 54  1  0  0  0  0
 28 55  1  0  0  0  0
 29 30  1  0  0  0  0
 31 56  1  0  0  0  0
 32 33  1  0  0  0  0
 32 57  1  0  0  0  0
 32 58  1  0  0  0  0
 33 59  1  0  0  0  0
M  END
$$$$
