CHEMBL1090356
 OpenBabel04072215363D

 72 78  0  0  0  0  0  0  0  0999 V2000
    2.6920   -1.3659   -0.0879 O   0  0  0  0  0  0  0  0  0  0  0  0
    2.5253   -0.2918    0.4971 C   0  0  0  0  0  0  0  0  0  0  0  0
    1.2297   -0.0192    1.2181 C   0  0  0  0  0  0  0  0  0  0  0  0
    1.3152    0.0584    2.7134 C   0  0  0  0  0  0  0  0  0  0  0  0
    0.3666    0.8473    3.3807 C   0  0  0  0  0  0  0  0  0  0  0  0
    0.2743    0.8307    4.7576 C   0  0  0  0  0  0  0  0  0  0  0  0
    1.1113   -0.0072    5.4740 C   0  0  0  0  0  0  0  0  0  0  0  0
    2.1003   -0.7588    4.8451 C   0  0  0  0  0  0  0  0  0  0  0  0
    2.2042   -0.7308    3.4613 C   0  0  0  0  0  0  0  0  0  0  0  0
    3.4063    0.7718    0.5289 N   0  0  0  0  0  0  0  0  0  0  0  0
    4.6186    0.8891   -0.1845 C   0  0  0  0  0  0  0  0  0  0  0  0
    5.1052   -0.0900   -1.0500 C   0  0  0  0  0  0  0  0  0  0  0  0
    6.3044    0.0994   -1.7347 C   0  0  0  0  0  0  0  0  0  0  0  0
    7.0252    1.2785   -1.5638 C   0  0  0  0  0  0  0  0  0  0  0  0
    6.5559    2.2820   -0.7096 C   0  0  0  0  0  0  0  0  0  0  0  0
    7.2885    3.5393   -0.6304 C   0  0  0  0  0  0  0  0  0  0  0  0
    7.9051    4.0413   -1.7699 N   0  0  0  0  0  0  0  0  0  0  0  0
    8.4098    5.1660   -1.3673 C   0  0  0  0  0  0  0  0  0  0  0  0
    9.3110    6.4293   -2.1459 S   0  0  0  0  0  0  0  0  0  0  0  0
    9.3415    7.3007   -0.6111 C   0  0  0  0  0  0  0  0  0  0  0  0
    8.7145    6.6418    0.3781 C   0  0  0  0  0  0  0  0  0  0  0  0
    8.1824    5.4385   -0.0522 N   0  0  0  0  0  0  0  0  0  0  0  0
    7.4606    4.3843    0.4788 C   0  0  0  0  0  0  0  0  0  0  0  0
    7.0597    4.2742    1.8814 C   0  0  0  0  0  0  0  0  0  0  0  0
    6.6587    5.3639    2.6232 C   0  0  0  0  0  0  0  0  0  0  0  0
    6.3157    5.1057    3.9215 C   0  0  0  0  0  0  0  0  0  0  0  0
    6.2949    3.8728    4.4371 N   0  0  0  0  0  0  0  0  0  0  0  0
    6.6678    2.8509    3.6484 C   0  0  0  0  0  0  0  0  0  0  0  0
    6.6398    1.5576    4.1619 N   0  0  0  0  0  0  0  0  0  0  0  0
    5.9202    1.0635    5.2569 C   0  0  0  0  0  0  0  0  0  0  0  0
    4.6946    1.6075    5.6505 C   0  0  0  0  0  0  0  0  0  0  0  0
    4.0333    1.1745    6.8127 C   0  0  0  0  0  0  0  0  0  0  0  0
    4.5714    0.1855    7.6410 C   0  0  0  0  0  0  0  0  0  0  0  0
    3.9388   -0.2669    8.7809 N   0  0  0  0  0  0  0  0  0  0  0  0
    2.4854   -0.3453    8.9405 C   0  0  0  0  0  0  0  0  0  0  0  0
    1.9756    0.5903   10.0372 C   0  0  0  0  0  0  0  0  0  0  0  0
    2.6605    0.3545   11.2742 O   0  0  0  0  0  0  0  0  0  0  0  0
    4.0733    0.5534   11.0930 C   0  0  0  0  0  0  0  0  0  0  0  0
    4.6695   -0.4081   10.0457 C   0  0  0  0  0  0  0  0  0  0  0  0
    5.8029   -0.3533    7.2371 C   0  0  0  0  0  0  0  0  0  0  0  0
    6.4629    0.0673    6.0665 C   0  0  0  0  0  0  0  0  0  0  0  0
    7.0911    3.0227    2.3869 N   0  0  0  0  0  0  0  0  0  0  0  0
    5.3450    2.0785   -0.0264 C   0  0  0  0  0  0  0  0  0  0  0  0
    0.5227   -0.8216    0.9668 H   0  0  0  0  0  0  0  0  0  0  0  0
    0.8158    0.9110    0.8108 H   0  0  0  0  0  0  0  0  0  0  0  0
   -0.3308    1.4614    2.8181 H   0  0  0  0  0  0  0  0  0  0  0  0
   -0.4678    1.4302    5.2776 H   0  0  0  0  0  0  0  0  0  0  0  0
    0.9573   -0.0675    6.5351 H   0  0  0  0  0  0  0  0  0  0  0  0
    2.7857   -1.3689    5.4340 H   0  0  0  0  0  0  0  0  0  0  0  0
    2.9538   -1.3560    2.9796 H   0  0  0  0  0  0  0  0  0  0  0  0
    3.1766    1.5324    1.1539 H   0  0  0  0  0  0  0  0  0  0  0  0
    4.5690   -1.0173   -1.2278 H   0  0  0  0  0  0  0  0  0  0  0  0
    6.6669   -0.6700   -2.4116 H   0  0  0  0  0  0  0  0  0  0  0  0
    7.9524    1.4256   -2.1197 H   0  0  0  0  0  0  0  0  0  0  0  0
    9.8294    8.2621   -0.5163 H   0  0  0  0  0  0  0  0  0  0  0  0
    8.6180    6.9791    1.3966 H   0  0  0  0  0  0  0  0  0  0  0  0
    6.5983    6.3686    2.2338 H   0  0  0  0  0  0  0  0  0  0  0  0
    6.0319    5.8976    4.6070 H   0  0  0  0  0  0  0  0  0  0  0  0
    7.1228    0.8951    3.5701 H   0  0  0  0  0  0  0  0  0  0  0  0
    4.2177    2.3699    5.0391 H   0  0  0  0  0  0  0  0  0  0  0  0
    3.0875    1.6493    7.0537 H   0  0  0  0  0  0  0  0  0  0  0  0
    2.2244   -1.3806    9.1922 H   0  0  0  0  0  0  0  0  0  0  0  0
    1.9728   -0.1051    8.0271 H   0  0  0  0  0  0  0  0  0  0  0  0
    0.9058    0.4172   10.2025 H   0  0  0  0  0  0  0  0  0  0  0  0
    2.0968    1.6411    9.7484 H   0  0  0  0  0  0  0  0  0  0  0  0
    4.5518    0.3860   12.0625 H   0  0  0  0  0  0  0  0  0  0  0  0
    4.2442    1.5978   10.8058 H   0  0  0  0  0  0  0  0  0  0  0  0
    4.5495   -1.4426   10.3876 H   0  0  0  0  0  0  0  0  0  0  0  0
    5.7392   -0.2052    9.9410 H   0  0  0  0  0  0  0  0  0  0  0  0
    6.2621   -1.1411    7.8272 H   0  0  0  0  0  0  0  0  0  0  0  0
    7.4242   -0.3758    5.8200 H   0  0  0  0  0  0  0  0  0  0  0  0
    4.9522    2.8603    0.6134 H   0  0  0  0  0  0  0  0  0  0  0  0
  1  2  2  0  0  0  0
  2  3  1  0  0  0  0
  2 10  1  0  0  0  0
  3  4  1  0  0  0  0
  3 44  1  0  0  0  0
  3 45  1  0  0  0  0
  4  5  1  0  0  0  0
  4  9  2  0  0  0  0
  5  6  2  0  0  0  0
  5 46  1  0  0  0  0
  6  7  1  0  0  0  0
  6 47  1  0  0  0  0
  7  8  2  0  0  0  0
  7 48  1  0  0  0  0
  8  9  1  0  0  0  0
  8 49  1  0  0  0  0
  9 50  1  0  0  0  0
 10 11  1  0  0  0  0
 10 51  1  0  0  0  0
 11 12  1  0  0  0  0
 11 43  2  0  0  0  0
 12 13  2  0  0  0  0
 12 52  1  0  0  0  0
 13 14  1  0  0  0  0
 13 53  1  0  0  0  0
 14 15  2  0  0  0  0
 14 54  1  0  0  0  0
 15 16  1  0  0  0  0
 15 43  1  0  0  0  0
 16 17  1  0  0  0  0
 16 23  2  0  0  0  0
 17 18  2  0  0  0  0
 18 19  1  0  0  0  0
 18 22  1  0  0  0  0
 19 20  1  0  0  0  0
 20 21  2  0  0  0  0
 20 55  1  0  0  0  0
 21 22  1  0  0  0  0
 21 56  1  0  0  0  0
 22 23  1  0  0  0  0
 23 24  1  0  0  0  0
 24 25  1  0  0  0  0
 24 42  2  0  0  0  0
 25 26  2  0  0  0  0
 25 57  1  0  0  0  0
 26 27  1  0  0  0  0
 26 58  1  0  0  0  0
 27 28  2  0  0  0  0
 28 29  1  0  0  0  0
 28 42  1  0  0  0  0
 29 30  1  0  0  0  0
 29 59  1  0  0  0  0
 30 31  1  0  0  0  0
 30 41  2  0  0  0  0
 31 32  2  0  0  0  0
 31 60  1  0  0  0  0
 32 33  1  0  0  0  0
 32 61  1  0  0  0  0
 33 34  1  0  0  0  0
 33 40  2  0  0  0  0
 34 35  1  0  0  0  0
 34 39  1  0  0  0  0
 35 36  1  0  0  0  0
 35 62  1  0  0  0  0
 35 63  1  0  0  0  0
 36 37  1  0  0  0  0
 36 64  1  0  0  0  0
 36 65  1  0  0  0  0
 37 38  1  0  0  0  0
 38 39  1  0  0  0  0
 38 66  1  0  0  0  0
 38 67  1  0  0  0  0
 39 68  1  0  0  0  0
 39 69  1  0  0  0  0
 40 41  1  0  0  0  0
 40 70  1  0  0  0  0
 41 71  1  0  0  0  0
 43 72  1  0  0  0  0
M  END
$$$$
