CHEMBL3976226
 OpenBabel04072215373D

 57 60  0  0  1  0  0  0  0  0999 V2000
    2.2188   -1.0514    2.2638 C   0  0  0  0  0  0  0  0  0  0  0  0
    3.5292   -0.9902    1.4937 C   0  0  0  0  0  0  0  0  0  0  0  0
    3.5887    0.2355    0.6080 C   0  0  0  0  0  0  0  0  0  0  0  0
    2.6350    1.0100    0.5261 O   0  0  0  0  0  0  0  0  0  0  0  0
    4.7752    0.4720   -0.0638 N   0  0  0  0  0  0  0  0  0  0  0  0
    5.9631   -0.3901   -0.1222 C   0  0  0  0  0  0  0  0  0  0  0  0
    7.1990    0.2974    0.4845 C   0  0  0  0  0  0  0  0  0  0  0  0
    7.3520    1.6633    0.0394 O   0  0  0  0  0  0  0  0  0  0  0  0
    6.1422    2.4589    0.2118 C   0  0  3  0  0  0  0  0  0  0  0  0
    5.8746    2.6305    1.7137 C   0  0  0  0  0  0  0  0  0  0  0  0
    4.6737    3.2675    2.0955 O   0  0  0  0  0  0  0  0  0  0  0  0
    4.1559    2.9002    3.3217 C   0  0  0  0  0  0  0  0  0  0  0  0
    2.7661    3.1523    3.3830 C   0  0  0  0  0  0  0  0  0  0  0  0
    1.9665    2.8324    4.4843 C   0  0  0  0  0  0  0  0  0  0  0  0
    0.6475    3.0663    4.4521 N   0  0  0  0  0  0  0  0  0  0  0  0
   -0.0599    2.7310    5.5381 C   0  0  0  0  0  0  0  0  0  0  0  0
    0.4259    2.2061    6.6587 N   0  0  0  0  0  0  0  0  0  0  0  0
    1.7492    1.9778    6.6971 C   0  0  0  0  0  0  0  0  0  0  0  0
    2.3456    1.4483    7.8808 N   0  0  0  0  0  0  0  0  0  0  0  0
    1.7120    1.0102    9.0655 C   0  0  0  0  0  0  0  0  0  0  0  0
    0.4168    0.4808    9.0879 C   0  0  0  0  0  0  0  0  0  0  0  0
   -0.1733    0.0610   10.2838 C   0  0  0  0  0  0  0  0  0  0  0  0
    0.5453    0.1209   11.4768 C   0  0  0  0  0  0  0  0  0  0  0  0
   -0.2578   -0.3694   12.9242 Cl  0  0  0  0  0  0  0  0  0  0  0  0
    1.8687    0.5667   11.4617 C   0  0  0  0  0  0  0  0  0  0  0  0
    2.8410    0.6260   12.8895 Cl  0  0  0  0  0  0  0  0  0  0  0  0
    2.4497    0.9913   10.2600 C   0  0  0  0  0  0  0  0  0  0  0  0
    2.5828    2.2544    5.5920 C   0  0  0  0  0  0  0  0  0  0  0  0
    3.9656    1.9669    5.5359 C   0  0  0  0  0  0  0  0  0  0  0  0
    4.7666    2.2922    4.4300 C   0  0  0  0  0  0  0  0  0  0  0  0
    6.0226    1.7778    4.5922 O   0  0  0  0  0  0  0  0  0  0  0  0
    7.1787    2.5585    4.3315 C   0  0  0  0  0  0  0  0  0  0  0  0
    5.0028    1.8178   -0.5792 C   0  0  0  0  0  0  0  0  0  0  0  0
    2.2165   -1.9021    2.9501 H   0  0  0  0  0  0  0  0  0  0  0  0
    1.3696   -1.1548    1.5798 H   0  0  0  0  0  0  0  0  0  0  0  0
    2.0629   -0.1391    2.8504 H   0  0  0  0  0  0  0  0  0  0  0  0
    3.6351   -1.8881    0.8784 H   0  0  0  0  0  0  0  0  0  0  0  0
    4.3568   -0.9379    2.2095 H   0  0  0  0  0  0  0  0  0  0  0  0
    6.1558   -0.5698   -1.1865 H   0  0  0  0  0  0  0  0  0  0  0  0
    5.7908   -1.3578    0.3536 H   0  0  0  0  0  0  0  0  0  0  0  0
    8.1074   -0.2428    0.1994 H   0  0  0  0  0  0  0  0  0  0  0  0
    7.1724    0.2630    1.5792 H   0  0  0  0  0  0  0  0  0  0  0  0
    6.3448    3.4449   -0.2223 H   0  0  0  0  0  0  0  0  0  0  0  0
    6.7007    3.2507    2.0625 H   0  0  0  0  0  0  0  0  0  0  0  0
    5.9108    1.6493    2.1807 H   0  0  0  0  0  0  0  0  0  0  0  0
    2.2718    3.5749    2.5074 H   0  0  0  0  0  0  0  0  0  0  0  0
   -1.1298    2.9052    5.4944 H   0  0  0  0  0  0  0  0  0  0  0  0
    3.1613    2.0139    8.0971 H   0  0  0  0  0  0  0  0  0  0  0  0
   -0.1598    0.3980    8.1699 H   0  0  0  0  0  0  0  0  0  0  0  0
   -1.1973   -0.3060   10.2682 H   0  0  0  0  0  0  0  0  0  0  0  0
    3.4848    1.3268   10.2659 H   0  0  0  0  0  0  0  0  0  0  0  0
    4.4375    1.4423    6.3656 H   0  0  0  0  0  0  0  0  0  0  0  0
    7.8498    2.5130    5.1939 H   0  0  0  0  0  0  0  0  0  0  0  0
    6.9720    3.6080    4.1076 H   0  0  0  0  0  0  0  0  0  0  0  0
    7.7228    2.0725    3.5131 H   0  0  0  0  0  0  0  0  0  0  0  0
    5.2944    1.7123   -1.6317 H   0  0  0  0  0  0  0  0  0  0  0  0
    4.1046    2.4405   -0.5379 H   0  0  0  0  0  0  0  0  0  0  0  0
  1  2  1  0  0  0  0
  1 34  1  0  0  0  0
  1 35  1  0  0  0  0
  1 36  1  0  0  0  0
  2  3  1  0  0  0  0
  2 37  1  0  0  0  0
  2 38  1  0  0  0  0
  3  4  2  0  0  0  0
  3  5  1  0  0  0  0
  5  6  1  0  0  0  0
  5 33  1  0  0  0  0
  6  7  1  0  0  0  0
  6 39  1  0  0  0  0
  6 40  1  0  0  0  0
  7  8  1  0  0  0  0
  7 41  1  0  0  0  0
  7 42  1  0  0  0  0
  8  9  1  0  0  0  0
  9 10  1  0  0  0  0
  9 33  1  0  0  0  0
  9 43  1  0  0  0  0
 10 11  1  0  0  0  0
 10 44  1  0  0  0  0
 10 45  1  0  0  0  0
 11 12  1  0  0  0  0
 12 13  1  0  0  0  0
 12 30  2  0  0  0  0
 13 14  2  0  0  0  0
 13 46  1  0  0  0  0
 14 15  1  0  0  0  0
 14 28  1  0  0  0  0
 15 16  2  0  0  0  0
 16 17  1  0  0  0  0
 16 47  1  0  0  0  0
 17 18  2  0  0  0  0
 18 19  1  0  0  0  0
 18 28  1  0  0  0  0
 19 20  1  0  0  0  0
 19 48  1  0  0  0  0
 20 21  1  0  0  0  0
 20 27  2  0  0  0  0
 21 22  2  0  0  0  0
 21 49  1  0  0  0  0
 22 23  1  0  0  0  0
 22 50  1  0  0  0  0
 23 24  1  0  0  0  0
 23 25  2  0  0  0  0
 25 26  1  0  0  0  0
 25 27  1  0  0  0  0
 27 51  1  0  0  0  0
 28 29  2  0  0  0  0
 29 30  1  0  0  0  0
 29 52  1  0  0  0  0
 30 31  1  0  0  0  0
 31 32  1  0  0  0  0
 32 53  1  0  0  0  0
 32 54  1  0  0  0  0
 32 55  1  0  0  0  0
 33 56  1  0  0  0  0
 33 57  1  0  0  0  0
M  END
$$$$
