CHEMBL469272
 OpenBabel04072215383D

 49 53  0  0  0  0  0  0  0  0999 V2000
    3.2184   -0.3087    1.2623 C   0  0  0  0  0  0  0  0  0  0  0  0
    1.7701   -0.1340    1.6140 C   0  0  0  0  0  0  0  0  0  0  0  0
    1.3693    0.7843    2.5842 C   0  0  0  0  0  0  0  0  0  0  0  0
    0.0239    0.9201    2.9454 C   0  0  0  0  0  0  0  0  0  0  0  0
   -0.9070    0.0750    2.3276 C   0  0  0  0  0  0  0  0  0  0  0  0
   -2.2674   -0.0164    2.5013 N   0  0  0  0  0  0  0  0  0  0  0  0
   -2.7726   -1.0301    1.7379 C   0  0  0  0  0  0  0  0  0  0  0  0
   -1.7296   -1.6397    1.0535 C   0  0  0  0  0  0  0  0  0  0  0  0
   -1.9026   -2.8402    0.2242 C   0  0  0  0  0  0  0  0  0  0  0  0
   -2.9534   -3.0460   -0.3855 O   0  0  0  0  0  0  0  0  0  0  0  0
   -0.8281   -3.8866    0.1865 C   0  0  0  0  0  0  0  0  0  0  0  0
    0.0234   -4.0303    1.3018 C   0  0  0  0  0  0  0  0  0  0  0  0
    1.0800   -4.9349    1.2927 C   0  0  0  0  0  0  0  0  0  0  0  0
    1.2683   -5.7476    0.1885 C   0  0  0  0  0  0  0  0  0  0  0  0
    0.3892   -5.6691   -0.8953 C   0  0  0  0  0  0  0  0  0  0  0  0
   -0.6963   -4.7714   -0.9129 C   0  0  0  0  0  0  0  0  0  0  0  0
   -1.5229   -4.6750   -2.0566 N   0  0  0  0  0  0  0  0  0  0  0  0
   -1.8315   -5.9123   -2.7774 C   0  0  0  0  0  0  0  0  0  0  0  0
   -2.7330   -5.6358   -3.9620 C   0  0  0  0  0  0  0  0  0  0  0  0
   -3.8955   -6.3986   -4.1624 C   0  0  0  0  0  0  0  0  0  0  0  0
   -4.6946   -6.2266   -5.3031 C   0  0  0  0  0  0  0  0  0  0  0  0
   -4.3233   -5.2560   -6.2475 C   0  0  0  0  0  0  0  0  0  0  0  0
   -4.8131   -4.7976   -7.4909 C   0  0  0  0  0  0  0  0  0  0  0  0
   -4.0900   -3.7927   -7.9941 N   0  0  0  0  0  0  0  0  0  0  0  0
   -3.1334   -3.6060   -7.0658 N   0  0  0  0  0  0  0  0  0  0  0  0
   -3.1899   -4.4870   -6.0189 C   0  0  0  0  0  0  0  0  0  0  0  0
   -2.3619   -4.6617   -4.9069 C   0  0  0  0  0  0  0  0  0  0  0  0
   -0.5491   -0.8783    1.3734 C   0  0  0  0  0  0  0  0  0  0  0  0
    0.8069   -0.9388    0.9839 C   0  0  0  0  0  0  0  0  0  0  0  0
    3.8547    0.3917    1.8118 H   0  0  0  0  0  0  0  0  0  0  0  0
    3.3737   -0.1410    0.1921 H   0  0  0  0  0  0  0  0  0  0  0  0
    3.5411   -1.3244    1.5171 H   0  0  0  0  0  0  0  0  0  0  0  0
    2.1082    1.4123    3.0802 H   0  0  0  0  0  0  0  0  0  0  0  0
   -0.2764    1.6413    3.6972 H   0  0  0  0  0  0  0  0  0  0  0  0
   -2.8056    0.5657    3.1231 H   0  0  0  0  0  0  0  0  0  0  0  0
   -3.8273   -1.2744    1.7645 H   0  0  0  0  0  0  0  0  0  0  0  0
   -0.1106   -3.4206    2.1931 H   0  0  0  0  0  0  0  0  0  0  0  0
    1.7566   -4.9909    2.1407 H   0  0  0  0  0  0  0  0  0  0  0  0
    2.0980   -6.4497    0.1619 H   0  0  0  0  0  0  0  0  0  0  0  0
    0.5920   -6.3206   -1.7408 H   0  0  0  0  0  0  0  0  0  0  0  0
   -2.3892   -4.1703   -1.8187 H   0  0  0  0  0  0  0  0  0  0  0  0
   -2.3078   -6.6286   -2.0968 H   0  0  0  0  0  0  0  0  0  0  0  0
   -0.9277   -6.3801   -3.1842 H   0  0  0  0  0  0  0  0  0  0  0  0
   -4.1896   -7.1499   -3.4312 H   0  0  0  0  0  0  0  0  0  0  0  0
   -5.5842   -6.8317   -5.4472 H   0  0  0  0  0  0  0  0  0  0  0  0
   -5.6677   -5.1573   -8.0483 H   0  0  0  0  0  0  0  0  0  0  0  0
   -2.4709   -2.8511   -7.1995 H   0  0  0  0  0  0  0  0  0  0  0  0
   -1.4608   -4.0697   -4.7708 H   0  0  0  0  0  0  0  0  0  0  0  0
    1.1238   -1.6496    0.2202 H   0  0  0  0  0  0  0  0  0  0  0  0
  1  2  1  0  0  0  0
  1 30  1  0  0  0  0
  1 31  1  0  0  0  0
  1 32  1  0  0  0  0
  2  3  1  0  0  0  0
  2 29  2  0  0  0  0
  3  4  2  0  0  0  0
  3 33  1  0  0  0  0
  4  5  1  0  0  0  0
  4 34  1  0  0  0  0
  5  6  1  0  0  0  0
  5 28  2  0  0  0  0
  6  7  1  0  0  0  0
  6 35  1  0  0  0  0
  7  8  2  0  0  0  0
  7 36  1  0  0  0  0
  8  9  1  0  0  0  0
  8 28  1  0  0  0  0
  9 10  2  0  0  0  0
  9 11  1  0  0  0  0
 11 12  1  0  0  0  0
 11 16  2  0  0  0  0
 12 13  2  0  0  0  0
 12 37  1  0  0  0  0
 13 14  1  0  0  0  0
 13 38  1  0  0  0  0
 14 15  2  0  0  0  0
 14 39  1  0  0  0  0
 15 16  1  0  0  0  0
 15 40  1  0  0  0  0
 16 17  1  0  0  0  0
 17 18  1  0  0  0  0
 17 41  1  0  0  0  0
 18 19  1  0  0  0  0
 18 42  1  0  0  0  0
 18 43  1  0  0  0  0
 19 20  1  0  0  0  0
 19 27  2  0  0  0  0
 20 21  2  0  0  0  0
 20 44  1  0  0  0  0
 21 22  1  0  0  0  0
 21 45  1  0  0  0  0
 22 23  1  0  0  0  0
 22 26  2  0  0  0  0
 23 24  2  0  0  0  0
 23 46  1  0  0  0  0
 24 25  1  0  0  0  0
 25 26  1  0  0  0  0
 25 47  1  0  0  0  0
 26 27  1  0  0  0  0
 27 48  1  0  0  0  0
 28 29  1  0  0  0  0
 29 49  1  0  0  0  0
M  END
$$$$
