CHEMBL3287598
 OpenBabel04072215363D

 62 66  0  0  0  0  0  0  0  0999 V2000
   13.5600    3.0174   -1.3224 N   0  0  0  0  0  0  0  0  0  0  0  0
   12.9086    2.0690   -1.4817 C   0  0  0  0  0  0  0  0  0  0  0  0
   12.0607    0.9291   -1.6725 C   0  0  0  0  0  0  0  0  0  0  0  0
   10.7406    1.0356   -1.2146 C   0  0  0  0  0  0  0  0  0  0  0  0
    9.8487   -0.0178   -1.3832 C   0  0  0  0  0  0  0  0  0  0  0  0
   10.2473   -1.1925   -2.0243 C   0  0  0  0  0  0  0  0  0  0  0  0
    9.3639   -2.2672   -2.2029 N   0  0  0  0  0  0  0  0  0  0  0  0
    7.9870   -2.1391   -2.4169 C   0  0  0  0  0  0  0  0  0  0  0  0
    7.5080   -1.0996   -3.1201 N   0  0  0  0  0  0  0  0  0  0  0  0
    6.1831   -1.0549   -3.3429 C   0  0  0  0  0  0  0  0  0  0  0  0
    5.3152   -2.0208   -2.9093 C   0  0  0  0  0  0  0  0  0  0  0  0
    5.9023   -3.0468   -2.2135 C   0  0  0  0  0  0  0  0  0  0  0  0
    5.0849   -4.1057   -1.8296 O   0  0  0  0  0  0  0  0  0  0  0  0
    5.6627   -5.3569   -1.8528 C   0  0  0  0  0  0  0  0  0  0  0  0
    6.5853   -5.7330   -2.8285 C   0  0  0  0  0  0  0  0  0  0  0  0
    7.1912   -6.9817   -2.7773 C   0  0  0  0  0  0  0  0  0  0  0  0
    6.8349   -7.9113   -1.8022 C   0  0  0  0  0  0  0  0  0  0  0  0
    7.4125   -9.1938   -1.7566 N   0  0  0  0  0  0  0  0  0  0  0  0
    8.2362   -9.7441   -2.7252 C   0  0  0  0  0  0  0  0  0  0  0  0
    8.5884   -9.2566   -3.7889 O   0  0  0  0  0  0  0  0  0  0  0  0
    8.6852  -11.1299   -2.4085 C   0  0  0  0  0  0  0  0  0  0  0  0
    7.6312  -12.1507   -2.6623 C   0  0  0  0  0  0  0  0  0  0  0  0
    6.7758  -12.3233   -1.8023 O   0  0  0  0  0  0  0  0  0  0  0  0
    7.7032  -12.7891   -3.8870 N   0  0  0  0  0  0  0  0  0  0  0  0
    6.6880  -13.6532   -4.3284 C   0  0  0  0  0  0  0  0  0  0  0  0
    5.3390  -13.2916   -4.2149 C   0  0  0  0  0  0  0  0  0  0  0  0
    4.3392  -14.1896   -4.5853 C   0  0  0  0  0  0  0  0  0  0  0  0
    4.6961  -15.4520   -5.0398 C   0  0  0  0  0  0  0  0  0  0  0  0
    3.7389  -16.3416   -5.3327 F   0  0  0  0  0  0  0  0  0  0  0  0
    6.0333  -15.8089   -5.1886 C   0  0  0  0  0  0  0  0  0  0  0  0
    7.0372  -14.8914   -4.8692 C   0  0  0  0  0  0  0  0  0  0  0  0
    9.6088  -11.2910   -1.2025 C   0  0  0  0  0  0  0  0  0  0  0  0
   10.1608  -11.4783   -2.5805 C   0  0  0  0  0  0  0  0  0  0  0  0
    5.8722   -7.5589   -0.8487 C   0  0  0  0  0  0  0  0  0  0  0  0
    5.2907   -6.2869   -0.8847 C   0  0  0  0  0  0  0  0  0  0  0  0
    4.3659   -5.9696    0.0343 F   0  0  0  0  0  0  0  0  0  0  0  0
    7.2187   -3.1079   -1.9222 N   0  0  0  0  0  0  0  0  0  0  0  0
   11.5797   -1.3188   -2.4324 C   0  0  0  0  0  0  0  0  0  0  0  0
   12.4973   -0.2564   -2.2884 C   0  0  0  0  0  0  0  0  0  0  0  0
   13.8929   -0.4505   -2.8300 C   0  0  0  0  0  0  0  0  0  0  0  0
   14.7222    0.6145   -2.6924 F   0  0  0  0  0  0  0  0  0  0  0  0
   14.5289   -1.4924   -2.2260 F   0  0  0  0  0  0  0  0  0  0  0  0
   13.8889   -0.7415   -4.1616 F   0  0  0  0  0  0  0  0  0  0  0  0
   10.3887    1.9496   -0.7374 H   0  0  0  0  0  0  0  0  0  0  0  0
    8.8283    0.0957   -1.0216 H   0  0  0  0  0  0  0  0  0  0  0  0
    9.4885   -3.0153   -1.5294 H   0  0  0  0  0  0  0  0  0  0  0  0
    5.8425   -0.1974   -3.9153 H   0  0  0  0  0  0  0  0  0  0  0  0
    4.2589   -1.9921   -3.1291 H   0  0  0  0  0  0  0  0  0  0  0  0
    6.8855   -5.0540   -3.6212 H   0  0  0  0  0  0  0  0  0  0  0  0
    7.9560   -7.1827   -3.5189 H   0  0  0  0  0  0  0  0  0  0  0  0
    7.1253   -9.8088   -0.9999 H   0  0  0  0  0  0  0  0  0  0  0  0
    8.6023  -12.8245   -4.3509 H   0  0  0  0  0  0  0  0  0  0  0  0
    5.0581  -12.3042   -3.8552 H   0  0  0  0  0  0  0  0  0  0  0  0
    3.2918  -13.9182   -4.5032 H   0  0  0  0  0  0  0  0  0  0  0  0
    6.2832  -16.8084   -5.5295 H   0  0  0  0  0  0  0  0  0  0  0  0
    8.0777  -15.1867   -4.9648 H   0  0  0  0  0  0  0  0  0  0  0  0
    9.4850  -12.1646   -0.5734 H   0  0  0  0  0  0  0  0  0  0  0  0
    9.9113  -10.3997   -0.6610 H   0  0  0  0  0  0  0  0  0  0  0  0
   10.4523  -12.4830   -2.8599 H   0  0  0  0  0  0  0  0  0  0  0  0
   10.8161  -10.7081   -2.9780 H   0  0  0  0  0  0  0  0  0  0  0  0
    5.5528   -8.2510   -0.0755 H   0  0  0  0  0  0  0  0  0  0  0  0
   11.9005   -2.2426   -2.9171 H   0  0  0  0  0  0  0  0  0  0  0  0
  1  2  3  0  0  0  0
  2  3  1  0  0  0  0
  3  4  1  0  0  0  0
  3 39  2  0  0  0  0
  4  5  2  0  0  0  0
  4 44  1  0  0  0  0
  5  6  1  0  0  0  0
  5 45  1  0  0  0  0
  6  7  1  0  0  0  0
  6 38  2  0  0  0  0
  7  8  1  0  0  0  0
  7 46  1  0  0  0  0
  8  9  1  0  0  0  0
  8 37  2  0  0  0  0
  9 10  2  0  0  0  0
 10 11  1  0  0  0  0
 10 47  1  0  0  0  0
 11 12  2  0  0  0  0
 11 48  1  0  0  0  0
 12 13  1  0  0  0  0
 12 37  1  0  0  0  0
 13 14  1  0  0  0  0
 14 15  1  0  0  0  0
 14 35  2  0  0  0  0
 15 16  2  0  0  0  0
 15 49  1  0  0  0  0
 16 17  1  0  0  0  0
 16 50  1  0  0  0  0
 17 18  1  0  0  0  0
 17 34  2  0  0  0  0
 18 19  1  0  0  0  0
 18 51  1  0  0  0  0
 19 20  2  0  0  0  0
 19 21  1  0  0  0  0
 21 22  1  0  0  0  0
 21 32  1  0  0  0  0
 21 33  1  0  0  0  0
 22 23  2  0  0  0  0
 22 24  1  0  0  0  0
 24 25  1  0  0  0  0
 24 52  1  0  0  0  0
 25 26  1  0  0  0  0
 25 31  2  0  0  0  0
 26 27  2  0  0  0  0
 26 53  1  0  0  0  0
 27 28  1  0  0  0  0
 27 54  1  0  0  0  0
 28 29  1  0  0  0  0
 28 30  2  0  0  0  0
 30 31  1  0  0  0  0
 30 55  1  0  0  0  0
 31 56  1  0  0  0  0
 32 33  1  0  0  0  0
 32 57  1  0  0  0  0
 32 58  1  0  0  0  0
 33 59  1  0  0  0  0
 33 60  1  0  0  0  0
 34 35  1  0  0  0  0
 34 61  1  0  0  0  0
 35 36  1  0  0  0  0
 38 39  1  0  0  0  0
 38 62  1  0  0  0  0
 39 40  1  0  0  0  0
 40 41  1  0  0  0  0
 40 42  1  0  0  0  0
 40 43  1  0  0  0  0
M  END
$$$$
