CHEMBL425672
 OpenBabel04072215383D

 62 66  0  0  0  0  0  0  0  0999 V2000
    6.1230    8.3673   -7.1263 C   0  0  0  0  0  0  0  0  0  0  0  0
    6.1735    7.6824   -5.8635 N   0  0  0  0  0  0  0  0  0  0  0  0
    6.5814    6.3690   -5.7709 C   0  0  0  0  0  0  0  0  0  0  0  0
    6.9231    5.6947   -6.7365 O   0  0  0  0  0  0  0  0  0  0  0  0
    6.5786    5.7986   -4.3846 C   0  0  0  0  0  0  0  0  0  0  0  0
    7.0424    4.5062   -4.1857 C   0  0  0  0  0  0  0  0  0  0  0  0
    6.9519    3.9687   -2.9045 C   0  0  0  0  0  0  0  0  0  0  0  0
    7.3447    2.6857   -2.5795 O   0  0  0  0  0  0  0  0  0  0  0  0
    7.0970    1.6626   -3.4768 C   0  0  0  0  0  0  0  0  0  0  0  0
    8.0194    0.6041   -3.4995 C   0  0  0  0  0  0  0  0  0  0  0  0
    7.8970   -0.4643   -4.4065 C   0  0  0  0  0  0  0  0  0  0  0  0
    6.8200   -0.3896   -5.2832 C   0  0  0  0  0  0  0  0  0  0  0  0
    6.4960   -1.2286   -6.3167 O   0  0  0  0  0  0  0  0  0  0  0  0
    5.3959   -0.6380   -6.8952 C   0  0  0  0  0  0  0  0  0  0  0  0
    4.9465   -1.1963   -8.0407 N   0  0  0  0  0  0  0  0  0  0  0  0
    4.2409   -0.5245   -9.0669 C   0  0  0  0  0  0  0  0  0  0  0  0
    3.9468    0.8402   -9.0131 C   0  0  0  0  0  0  0  0  0  0  0  0
    3.2084    1.4641  -10.0146 C   0  0  0  0  0  0  0  0  0  0  0  0
    2.7204    0.7407  -11.1113 C   0  0  0  0  0  0  0  0  0  0  0  0
    1.8231    1.7119  -12.2280 Cl  0  0  0  0  0  0  0  0  0  0  0  0
    2.9833   -0.6362  -11.2069 C   0  0  0  0  0  0  0  0  0  0  0  0
    2.6221   -1.5389  -12.1863 O   0  0  0  0  0  0  0  0  0  0  0  0
    1.8316   -1.0837  -13.2777 C   0  0  0  0  0  0  0  0  0  0  0  0
    1.4653   -2.1708  -14.3086 C   0  0  0  0  0  0  0  0  0  0  0  0
    0.6507   -3.3274  -13.7151 C   0  0  0  0  0  0  0  0  0  0  0  0
    1.5124   -4.4054  -13.0641 C   0  0  0  0  0  0  0  0  0  0  0  0
    2.5378   -4.9027  -13.9827 N   0  0  0  0  0  0  0  0  0  0  0  0
    3.4293   -3.8146  -14.3868 C   0  0  0  0  0  0  0  0  0  0  0  0
    2.6706   -2.6996  -15.0996 C   0  0  0  0  0  0  0  0  0  0  0  0
    3.7332   -1.2450  -10.1679 C   0  0  0  0  0  0  0  0  0  0  0  0
    4.9601    0.4238   -6.2501 N   0  0  0  0  0  0  0  0  0  0  0  0
    5.8697    0.6161   -5.2547 C   0  0  0  0  0  0  0  0  0  0  0  0
    5.9699    1.6408   -4.3102 C   0  0  0  0  0  0  0  0  0  0  0  0
    6.4826    4.7628   -1.8613 C   0  0  0  0  0  0  0  0  0  0  0  0
    6.0662    6.0533   -2.1525 C   0  0  0  0  0  0  0  0  0  0  0  0
    6.0912    6.5939   -3.3908 N   0  0  0  0  0  0  0  0  0  0  0  0
    5.7834    9.3922   -6.9634 H   0  0  0  0  0  0  0  0  0  0  0  0
    5.4321    7.8443   -7.7937 H   0  0  0  0  0  0  0  0  0  0  0  0
    7.1206    8.3692   -7.5746 H   0  0  0  0  0  0  0  0  0  0  0  0
    5.9072    8.1468   -4.9995 H   0  0  0  0  0  0  0  0  0  0  0  0
    7.4350    3.9375   -5.0216 H   0  0  0  0  0  0  0  0  0  0  0  0
    8.8623    0.6165   -2.8080 H   0  0  0  0  0  0  0  0  0  0  0  0
    8.6152   -1.2748   -4.4480 H   0  0  0  0  0  0  0  0  0  0  0  0
    5.3875   -2.0586   -8.3304 H   0  0  0  0  0  0  0  0  0  0  0  0
    4.2986    1.4695   -8.1991 H   0  0  0  0  0  0  0  0  0  0  0  0
    3.0186    2.5307   -9.9293 H   0  0  0  0  0  0  0  0  0  0  0  0
    2.3816   -0.3077  -13.8207 H   0  0  0  0  0  0  0  0  0  0  0  0
    0.8853   -0.6904  -12.8894 H   0  0  0  0  0  0  0  0  0  0  0  0
    0.8152   -1.6589  -15.0330 H   0  0  0  0  0  0  0  0  0  0  0  0
    0.0738   -3.7903  -14.5279 H   0  0  0  0  0  0  0  0  0  0  0  0
   -0.0856   -2.9506  -12.9956 H   0  0  0  0  0  0  0  0  0  0  0  0
    0.8717   -5.2448  -12.7708 H   0  0  0  0  0  0  0  0  0  0  0  0
    1.9762   -4.0382  -12.1429 H   0  0  0  0  0  0  0  0  0  0  0  0
    2.0845   -5.2868  -14.8108 H   0  0  0  0  0  0  0  0  0  0  0  0
    4.1858   -4.2211  -15.0678 H   0  0  0  0  0  0  0  0  0  0  0  0
    3.9730   -3.4265  -13.5191 H   0  0  0  0  0  0  0  0  0  0  0  0
    2.3020   -3.0918  -16.0580 H   0  0  0  0  0  0  0  0  0  0  0  0
    3.3566   -1.8821  -15.3515 H   0  0  0  0  0  0  0  0  0  0  0  0
    3.9178   -2.3163  -10.2323 H   0  0  0  0  0  0  0  0  0  0  0  0
    5.2118    2.4145   -4.2891 H   0  0  0  0  0  0  0  0  0  0  0  0
    6.4322    4.3812   -0.8476 H   0  0  0  0  0  0  0  0  0  0  0  0
    5.6838    6.7033   -1.3695 H   0  0  0  0  0  0  0  0  0  0  0  0
  1  2  1  0  0  0  0
  1 37  1  0  0  0  0
  1 38  1  0  0  0  0
  1 39  1  0  0  0  0
  2  3  1  0  0  0  0
  2 40  1  0  0  0  0
  3  4  2  0  0  0  0
  3  5  1  0  0  0  0
  5  6  1  0  0  0  0
  5 36  2  0  0  0  0
  6  7  2  0  0  0  0
  6 41  1  0  0  0  0
  7  8  1  0  0  0  0
  7 34  1  0  0  0  0
  8  9  1  0  0  0  0
  9 10  1  0  0  0  0
  9 33  2  0  0  0  0
 10 11  2  0  0  0  0
 10 42  1  0  0  0  0
 11 12  1  0  0  0  0
 11 43  1  0  0  0  0
 12 13  1  0  0  0  0
 12 32  2  0  0  0  0
 13 14  1  0  0  0  0
 14 15  1  0  0  0  0
 14 31  2  0  0  0  0
 15 16  1  0  0  0  0
 15 44  1  0  0  0  0
 16 17  1  0  0  0  0
 16 30  2  0  0  0  0
 17 18  2  0  0  0  0
 17 45  1  0  0  0  0
 18 19  1  0  0  0  0
 18 46  1  0  0  0  0
 19 20  1  0  0  0  0
 19 21  2  0  0  0  0
 21 22  1  0  0  0  0
 21 30  1  0  0  0  0
 22 23  1  0  0  0  0
 23 24  1  0  0  0  0
 23 47  1  0  0  0  0
 23 48  1  0  0  0  0
 24 25  1  0  0  0  0
 24 29  1  0  0  0  0
 24 49  1  0  0  0  0
 25 26  1  0  0  0  0
 25 50  1  0  0  0  0
 25 51  1  0  0  0  0
 26 27  1  0  0  0  0
 26 52  1  0  0  0  0
 26 53  1  0  0  0  0
 27 28  1  0  0  0  0
 27 54  1  0  0  0  0
 28 29  1  0  0  0  0
 28 55  1  0  0  0  0
 28 56  1  0  0  0  0
 29 57  1  0  0  0  0
 29 58  1  0  0  0  0
 30 59  1  0  0  0  0
 31 32  1  0  0  0  0
 32 33  1  0  0  0  0
 33 60  1  0  0  0  0
 34 35  2  0  0  0  0
 34 61  1  0  0  0  0
 35 36  1  0  0  0  0
 35 62  1  0  0  0  0
M  END
$$$$
