CHEMBL526285
 OpenBabel04072215383D

 51 55  0  0  0  0  0  0  0  0999 V2000
   -3.2388    0.7916   -0.2910 O   0  0  0  0  0  0  0  0  0  0  0  0
   -2.1339    0.2713   -0.1253 C   0  0  0  0  0  0  0  0  0  0  0  0
   -1.0310    1.0713   -0.0952 N   0  0  0  0  0  0  0  0  0  0  0  0
    0.2680    0.5875    0.0069 C   0  0  0  0  0  0  0  0  0  0  0  0
    1.3380    1.4806   -0.0330 C   0  0  0  0  0  0  0  0  0  0  0  0
    2.6469    0.9986   -0.0107 C   0  0  0  0  0  0  0  0  0  0  0  0
    2.8760   -0.3718    0.0511 C   0  0  0  0  0  0  0  0  0  0  0  0
    1.8034   -1.2578    0.1145 C   0  0  0  0  0  0  0  0  0  0  0  0
    0.4766   -0.7932    0.1169 C   0  0  0  0  0  0  0  0  0  0  0  0
   -0.6956   -1.7191    0.1997 C   0  0  0  0  0  0  0  0  0  0  0  0
   -0.3054   -3.0182    0.5664 N   0  0  0  0  0  0  0  0  0  0  0  0
   -0.3929   -4.2038   -0.2947 C   0  0  0  0  0  0  0  0  0  0  0  0
    0.0474   -5.4520    0.5089 C   0  0  0  0  0  0  0  0  0  0  0  0
    0.2977   -6.6606   -0.4101 C   0  0  0  0  0  0  0  0  0  0  0  0
   -0.9518   -7.4960   -0.6621 C   0  0  0  0  0  0  0  0  0  0  0  0
   -1.5036   -7.9726    0.6032 N   0  0  0  0  0  0  0  0  0  0  0  0
   -1.9776   -6.8375    1.3880 C   0  0  0  0  0  0  0  0  0  0  0  0
   -0.8847   -5.8142    1.6896 C   0  0  0  0  0  0  0  0  0  0  0  0
   -1.9540   -1.2201    0.0667 C   0  0  0  0  0  0  0  0  0  0  0  0
   -3.1307   -2.0501    0.0896 C   0  0  0  0  0  0  0  0  0  0  0  0
   -3.2984   -3.3526    0.2646 N   0  0  0  0  0  0  0  0  0  0  0  0
   -4.6114   -3.6216   -0.0498 C   0  0  0  0  0  0  0  0  0  0  0  0
   -5.2802   -4.8459   -0.1472 C   0  0  0  0  0  0  0  0  0  0  0  0
   -6.6293   -4.8508   -0.5417 C   0  0  0  0  0  0  0  0  0  0  0  0
   -7.3010   -3.6550   -0.8022 C   0  0  0  0  0  0  0  0  0  0  0  0
   -6.6522   -2.4199   -0.6890 C   0  0  0  0  0  0  0  0  0  0  0  0
   -5.3039   -2.4536   -0.3254 C   0  0  0  0  0  0  0  0  0  0  0  0
   -4.3626   -1.4735   -0.1768 N   0  0  0  0  0  0  0  0  0  0  0  0
   -1.2022    2.0618   -0.2024 H   0  0  0  0  0  0  0  0  0  0  0  0
    1.1675    2.5518   -0.0902 H   0  0  0  0  0  0  0  0  0  0  0  0
    3.4829    1.6878   -0.0525 H   0  0  0  0  0  0  0  0  0  0  0  0
    3.8912   -0.7583    0.0520 H   0  0  0  0  0  0  0  0  0  0  0  0
    2.0068   -2.3229    0.1637 H   0  0  0  0  0  0  0  0  0  0  0  0
   -0.6875   -3.2146    1.4887 H   0  0  0  0  0  0  0  0  0  0  0  0
    0.3125   -4.0577   -1.1234 H   0  0  0  0  0  0  0  0  0  0  0  0
   -1.3785   -4.3443   -0.7417 H   0  0  0  0  0  0  0  0  0  0  0  0
    1.0196   -5.1882    0.9510 H   0  0  0  0  0  0  0  0  0  0  0  0
    1.0555   -7.3015    0.0604 H   0  0  0  0  0  0  0  0  0  0  0  0
    0.7249   -6.3409   -1.3679 H   0  0  0  0  0  0  0  0  0  0  0  0
   -0.6941   -8.3630   -1.2800 H   0  0  0  0  0  0  0  0  0  0  0  0
   -1.7049   -6.9260   -1.2192 H   0  0  0  0  0  0  0  0  0  0  0  0
   -0.7778   -8.4640    1.1263 H   0  0  0  0  0  0  0  0  0  0  0  0
   -2.3796   -7.2152    2.3365 H   0  0  0  0  0  0  0  0  0  0  0  0
   -2.8144   -6.3607    0.8732 H   0  0  0  0  0  0  0  0  0  0  0  0
   -0.2579   -6.2173    2.4952 H   0  0  0  0  0  0  0  0  0  0  0  0
   -1.3698   -4.9279    2.1111 H   0  0  0  0  0  0  0  0  0  0  0  0
   -4.7632   -5.7774    0.0361 H   0  0  0  0  0  0  0  0  0  0  0  0
   -7.1497   -5.7997   -0.6500 H   0  0  0  0  0  0  0  0  0  0  0  0
   -8.3445   -3.6850   -1.1090 H   0  0  0  0  0  0  0  0  0  0  0  0
   -7.1697   -1.4897   -0.8994 H   0  0  0  0  0  0  0  0  0  0  0  0
   -4.5091   -0.4825   -0.3298 H   0  0  0  0  0  0  0  0  0  0  0  0
  1  2  2  0  0  0  0
  2  3  1  0  0  0  0
  2 19  1  0  0  0  0
  3  4  1  0  0  0  0
  3 29  1  0  0  0  0
  4  5  1  0  0  0  0
  4  9  2  0  0  0  0
  5  6  2  0  0  0  0
  5 30  1  0  0  0  0
  6  7  1  0  0  0  0
  6 31  1  0  0  0  0
  7  8  2  0  0  0  0
  7 32  1  0  0  0  0
  8  9  1  0  0  0  0
  8 33  1  0  0  0  0
  9 10  1  0  0  0  0
 10 11  1  0  0  0  0
 10 19  2  0  0  0  0
 11 12  1  0  0  0  0
 11 34  1  0  0  0  0
 12 13  1  0  0  0  0
 12 35  1  0  0  0  0
 12 36  1  0  0  0  0
 13 14  1  0  0  0  0
 13 18  1  0  0  0  0
 13 37  1  0  0  0  0
 14 15  1  0  0  0  0
 14 38  1  0  0  0  0
 14 39  1  0  0  0  0
 15 16  1  0  0  0  0
 15 40  1  0  0  0  0
 15 41  1  0  0  0  0
 16 17  1  0  0  0  0
 16 42  1  0  0  0  0
 17 18  1  0  0  0  0
 17 43  1  0  0  0  0
 17 44  1  0  0  0  0
 18 45  1  0  0  0  0
 18 46  1  0  0  0  0
 19 20  1  0  0  0  0
 20 21  2  0  0  0  0
 20 28  1  0  0  0  0
 21 22  1  0  0  0  0
 22 23  1  0  0  0  0
 22 27  2  0  0  0  0
 23 24  2  0  0  0  0
 23 47  1  0  0  0  0
 24 25  1  0  0  0  0
 24 48  1  0  0  0  0
 25 26  2  0  0  0  0
 25 49  1  0  0  0  0
 26 27  1  0  0  0  0
 26 50  1  0  0  0  0
 27 28  1  0  0  0  0
 28 51  1  0  0  0  0
M  END
$$$$
