CHEMBL3287222
 OpenBabel04072215363D

 51 53  0  0  0  0  0  0  0  0999 V2000
    6.4176   -3.2283   -2.0352 C   0  0  0  0  0  0  0  0  0  0  0  0
    6.1253   -2.1050   -1.2884 O   0  0  0  0  0  0  0  0  0  0  0  0
    5.9915   -2.0608    0.0625 C   0  0  0  0  0  0  0  0  0  0  0  0
    6.3204   -3.1440    0.8944 C   0  0  0  0  0  0  0  0  0  0  0  0
    6.1616   -3.0485    2.2779 C   0  0  0  0  0  0  0  0  0  0  0  0
    5.6498   -1.8741    2.8842 C   0  0  0  0  0  0  0  0  0  0  0  0
    5.4402   -1.7696    4.3191 N   0  0  0  0  0  0  0  0  0  0  0  0
    5.5977   -0.4666    4.9510 C   0  0  0  0  0  0  0  0  0  0  0  0
    5.0691   -2.9278    5.1202 C   0  0  0  0  0  0  0  0  0  0  0  0
    4.8827   -4.1317    4.5007 N   0  0  0  0  0  0  0  0  0  0  0  0
    4.5565   -5.2860    5.1526 C   0  0  0  0  0  0  0  0  0  0  0  0
    4.3951   -6.5529    4.3778 C   0  0  0  0  0  0  0  0  0  0  0  0
    4.3843   -5.2800    6.5018 N   0  0  0  0  0  0  0  0  0  0  0  0
    4.5243   -4.1046    7.1569 C   0  0  0  0  0  0  0  0  0  0  0  0
    4.3722   -3.8515    8.4999 C   0  0  0  0  0  0  0  0  0  0  0  0
    4.0398   -4.8139    9.5990 C   0  0  0  0  0  0  0  0  0  0  0  0
    2.5546   -4.8771    9.8347 C   0  0  0  0  0  0  0  0  0  0  0  0
    1.6999   -5.3560    8.8271 C   0  0  0  0  0  0  0  0  0  0  0  0
    0.3234   -5.4278    9.0454 C   0  0  0  0  0  0  0  0  0  0  0  0
   -0.2148   -5.0197   10.2688 C   0  0  0  0  0  0  0  0  0  0  0  0
    0.6266   -4.5417   11.2770 C   0  0  0  0  0  0  0  0  0  0  0  0
    2.0075   -4.4708   11.0644 C   0  0  0  0  0  0  0  0  0  0  0  0
    4.5950   -2.4947    8.6474 C   0  0  0  0  0  0  0  0  0  0  0  0
    4.8885   -1.9332    7.4529 N   0  0  0  0  0  0  0  0  0  0  0  0
    4.8497   -2.9260    6.5279 C   0  0  0  0  0  0  0  0  0  0  0  0
    5.3409   -0.7901    2.0270 C   0  0  0  0  0  0  0  0  0  0  0  0
    5.5121   -0.8861    0.6439 C   0  0  0  0  0  0  0  0  0  0  0  0
    1.8023   -2.0811   -1.6213 Cl  0  0  0  0  0  0  0  0  0  0  0  0
    6.5218   -2.9363   -3.1000 H   0  0  0  0  0  0  0  0  0  0  0  0
    5.5910   -3.9664   -1.9492 H   0  0  0  0  0  0  0  0  0  0  0  0
    7.3742   -3.6842   -1.7042 H   0  0  0  0  0  0  0  0  0  0  0  0
    6.7081   -4.0660    0.4846 H   0  0  0  0  0  0  0  0  0  0  0  0
    6.4704   -3.9071    2.8502 H   0  0  0  0  0  0  0  0  0  0  0  0
    5.9571    0.3209    4.2637 H   0  0  0  0  0  0  0  0  0  0  0  0
    6.3971   -0.5276    5.7183 H   0  0  0  0  0  0  0  0  0  0  0  0
    4.6278   -0.1310    5.3740 H   0  0  0  0  0  0  0  0  0  0  0  0
    4.5769   -6.3742    3.2953 H   0  0  0  0  0  0  0  0  0  0  0  0
    3.3642   -6.9436    4.5047 H   0  0  0  0  0  0  0  0  0  0  0  0
    5.1229   -7.3083    4.7396 H   0  0  0  0  0  0  0  0  0  0  0  0
    4.5795   -4.4853   10.5142 H   0  0  0  0  0  0  0  0  0  0  0  0
    4.4194   -5.8268    9.3481 H   0  0  0  0  0  0  0  0  0  0  0  0
    2.1003   -5.6810    7.8765 H   0  0  0  0  0  0  0  0  0  0  0  0
   -0.3273   -5.8011    8.2646 H   0  0  0  0  0  0  0  0  0  0  0  0
   -1.2824   -5.0768   10.4349 H   0  0  0  0  0  0  0  0  0  0  0  0
    0.2085   -4.2265   12.2243 H   0  0  0  0  0  0  0  0  0  0  0  0
    2.6454   -4.0983   11.8564 H   0  0  0  0  0  0  0  0  0  0  0  0
    4.5502   -1.9454    9.5779 H   0  0  0  0  0  0  0  0  0  0  0  0
    5.0843   -0.9202    7.3579 H   0  0  0  0  0  0  0  0  0  0  0  0
    4.9360    0.1366    2.4070 H   0  0  0  0  0  0  0  0  0  0  0  0
    5.2555   -0.0418    0.0166 H   0  0  0  0  0  0  0  0  0  0  0  0
    2.7366   -1.4432   -0.8395 H   0  0  0  0  0  0  0  0  0  0  0  0
  1  2  1  0  0  0  0
  1 29  1  0  0  0  0
  1 30  1  0  0  0  0
  1 31  1  0  0  0  0
  2  3  1  0  0  0  0
  3  4  1  0  0  0  0
  3 27  2  0  0  0  0
  4  5  2  0  0  0  0
  4 32  1  0  0  0  0
  5  6  1  0  0  0  0
  5 33  1  0  0  0  0
  6  7  1  0  0  0  0
  6 26  2  0  0  0  0
  7  8  1  0  0  0  0
  7  9  1  0  0  0  0
  8 34  1  0  0  0  0
  8 35  1  0  0  0  0
  8 36  1  0  0  0  0
  9 10  1  0  0  0  0
  9 25  2  0  0  0  0
 10 11  2  0  0  0  0
 11 12  1  0  0  0  0
 11 13  1  0  0  0  0
 12 37  1  0  0  0  0
 12 38  1  0  0  0  0
 12 39  1  0  0  0  0
 13 14  2  0  0  0  0
 14 15  1  0  0  0  0
 14 25  1  0  0  0  0
 15 16  1  0  0  0  0
 15 23  2  0  0  0  0
 16 17  1  0  0  0  0
 16 40  1  0  0  0  0
 16 41  1  0  0  0  0
 17 18  1  0  0  0  0
 17 22  2  0  0  0  0
 18 19  2  0  0  0  0
 18 42  1  0  0  0  0
 19 20  1  0  0  0  0
 19 43  1  0  0  0  0
 20 21  2  0  0  0  0
 20 44  1  0  0  0  0
 21 22  1  0  0  0  0
 21 45  1  0  0  0  0
 22 46  1  0  0  0  0
 23 24  1  0  0  0  0
 23 47  1  0  0  0  0
 24 25  1  0  0  0  0
 24 48  1  0  0  0  0
 26 27  1  0  0  0  0
 26 49  1  0  0  0  0
 27 50  1  0  0  0  0
 28 51  1  0  0  0  0
M  END
$$$$
