CHEMBL2403367
 OpenBabel04072215363D

 44 47  0  0  0  0  0  0  0  0999 V2000
    1.6552    0.1305   -0.5736 C   0  0  0  0  0  0  0  0  0  0  0  0
    3.0141    0.1326   -0.1481 O   0  0  0  0  0  0  0  0  0  0  0  0
    3.6788    1.3181   -0.3204 C   0  0  0  0  0  0  0  0  0  0  0  0
    5.0592    1.1882   -0.5762 C   0  0  0  0  0  0  0  0  0  0  0  0
    5.8631    2.3102   -0.7893 C   0  0  0  0  0  0  0  0  0  0  0  0
    5.2502    3.5409   -0.7117 C   0  0  0  0  0  0  0  0  0  0  0  0
    3.8924    3.6943   -0.4124 C   0  0  0  0  0  0  0  0  0  0  0  0
    3.0871    2.5837   -0.2204 C   0  0  0  0  0  0  0  0  0  0  0  0
    3.6333    5.1416   -0.4323 C   0  0  0  0  0  0  0  0  0  0  0  0
    2.4472    5.7344   -0.2154 C   0  0  0  0  0  0  0  0  0  0  0  0
    2.2493    7.1116   -0.4610 C   0  0  0  0  0  0  0  0  0  0  0  0
    1.8021    7.7868   -1.5762 C   0  0  0  0  0  0  0  0  0  0  0  0
    1.9604    9.1726   -1.3295 C   0  0  0  0  0  0  0  0  0  0  0  0
    2.4234    9.2967   -0.0445 C   0  0  0  0  0  0  0  0  0  0  0  0
    2.5876    8.0464    0.4925 N   0  0  0  0  0  0  0  0  0  0  0  0
    2.7857   10.5680    0.6102 C   0  0  0  0  0  0  0  0  0  0  0  0
    2.5035   11.7867   -0.2941 C   0  0  0  0  0  0  0  0  0  0  0  0
    2.1374   11.6044   -1.7156 N   0  0  0  0  0  0  0  0  0  0  0  0
    1.9687   12.7720   -2.4552 C   0  0  0  0  0  0  0  0  0  0  0  0
    1.5237   12.6746   -3.8987 C   0  0  0  0  0  0  0  0  0  0  0  0
    2.1642   13.8894   -1.9690 O   0  0  0  0  0  0  0  0  0  0  0  0
    1.7566   10.2974   -2.2639 C   0  0  0  0  0  0  0  0  0  0  0  0
    4.9449    5.8130   -0.7815 C   0  0  0  0  0  0  0  0  0  0  0  0
    5.2014    6.9965   -0.8862 O   0  0  0  0  0  0  0  0  0  0  0  0
    5.8489    4.7753   -0.9246 N   0  0  0  0  0  0  0  0  0  0  0  0
    1.2889   -0.8987   -0.5151 H   0  0  0  0  0  0  0  0  0  0  0  0
    1.5676    0.4601   -1.6149 H   0  0  0  0  0  0  0  0  0  0  0  0
    1.0296    0.7394    0.0856 H   0  0  0  0  0  0  0  0  0  0  0  0
    5.4970    0.1941   -0.6287 H   0  0  0  0  0  0  0  0  0  0  0  0
    6.9185    2.2054   -1.0111 H   0  0  0  0  0  0  0  0  0  0  0  0
    2.0359    2.7051    0.0036 H   0  0  0  0  0  0  0  0  0  0  0  0
    1.5679    5.1446    0.0248 H   0  0  0  0  0  0  0  0  0  0  0  0
    1.4822    7.3259   -2.5032 H   0  0  0  0  0  0  0  0  0  0  0  0
    2.9820    7.8438    1.4018 H   0  0  0  0  0  0  0  0  0  0  0  0
    3.8488   10.5538    0.8785 H   0  0  0  0  0  0  0  0  0  0  0  0
    2.2296   10.6827    1.5483 H   0  0  0  0  0  0  0  0  0  0  0  0
    3.3912   12.4347   -0.2749 H   0  0  0  0  0  0  0  0  0  0  0  0
    1.7029   12.3834    0.1633 H   0  0  0  0  0  0  0  0  0  0  0  0
    1.4035   11.6615   -4.2765 H   0  0  0  0  0  0  0  0  0  0  0  0
    2.2691   13.1739   -4.5252 H   0  0  0  0  0  0  0  0  0  0  0  0
    0.5626   13.1869   -4.0027 H   0  0  0  0  0  0  0  0  0  0  0  0
    2.3721   10.1266   -3.1557 H   0  0  0  0  0  0  0  0  0  0  0  0
    0.7049   10.3435   -2.5676 H   0  0  0  0  0  0  0  0  0  0  0  0
    6.8155    4.9334   -1.1635 H   0  0  0  0  0  0  0  0  0  0  0  0
  1  2  1  0  0  0  0
  1 26  1  0  0  0  0
  1 27  1  0  0  0  0
  1 28  1  0  0  0  0
  2  3  1  0  0  0  0
  3  4  1  0  0  0  0
  3  8  2  0  0  0  0
  4  5  2  0  0  0  0
  4 29  1  0  0  0  0
  5  6  1  0  0  0  0
  5 30  1  0  0  0  0
  6  7  2  0  0  0  0
  6 25  1  0  0  0  0
  7  8  1  0  0  0  0
  7  9  1  0  0  0  0
  8 31  1  0  0  0  0
  9 10  2  0  0  0  0
  9 23  1  0  0  0  0
 10 11  1  0  0  0  0
 10 32  1  0  0  0  0
 11 12  2  0  0  0  0
 11 15  1  0  0  0  0
 12 13  1  0  0  0  0
 12 33  1  0  0  0  0
 13 14  2  0  0  0  0
 13 22  1  0  0  0  0
 14 15  1  0  0  0  0
 14 16  1  0  0  0  0
 15 34  1  0  0  0  0
 16 17  1  0  0  0  0
 16 35  1  0  0  0  0
 16 36  1  0  0  0  0
 17 18  1  0  0  0  0
 17 37  1  0  0  0  0
 17 38  1  0  0  0  0
 18 19  1  0  0  0  0
 18 22  1  0  0  0  0
 19 20  1  0  0  0  0
 19 21  2  0  0  0  0
 20 39  1  0  0  0  0
 20 40  1  0  0  0  0
 20 41  1  0  0  0  0
 22 42  1  0  0  0  0
 22 43  1  0  0  0  0
 23 24  2  0  0  0  0
 23 25  1  0  0  0  0
 25 44  1  0  0  0  0
M  END
$$$$
