CHEMBL205097
 OpenBabel04072215363D

 36 39  0  0  0  0  0  0  0  0999 V2000
    1.0443   -0.2678   -0.8796 C   0  0  0  0  0  0  0  0  0  0  0  0
    2.3820   -0.1084   -0.3555 N   0  0  0  0  0  0  0  0  0  0  0  0
    3.1597    0.9997   -0.5526 C   0  0  0  0  0  0  0  0  0  0  0  0
    4.3220    0.8412    0.1627 C   0  0  0  0  0  0  0  0  0  0  0  0
    5.3954    1.7770    0.2643 C   0  0  0  0  0  0  0  0  0  0  0  0
    5.3853    3.1189    0.2208 C   0  0  0  0  0  0  0  0  0  0  0  0
    4.2654    4.0713    0.0165 C   0  0  0  0  0  0  0  0  0  0  0  0
    3.0647    3.8918    0.0285 O   0  0  0  0  0  0  0  0  0  0  0  0
    4.9182    5.2804   -0.1802 N   0  0  0  0  0  0  0  0  0  0  0  0
    6.2797    5.2554    0.0085 N   0  0  0  0  0  0  0  0  0  0  0  0
    6.5788    4.0084    0.2890 C   0  0  0  0  0  0  0  0  0  0  0  0
    7.9276    3.5656    0.6626 C   0  0  0  0  0  0  0  0  0  0  0  0
    9.0413    4.2727    0.2372 C   0  0  0  0  0  0  0  0  0  0  0  0
   10.3047    3.9079    0.5791 N   0  0  0  0  0  0  0  0  0  0  0  0
   10.4005    2.8259    1.3863 C   0  0  0  0  0  0  0  0  0  0  0  0
    9.2866    2.1363    1.8333 C   0  0  0  0  0  0  0  0  0  0  0  0
    8.0292    2.4875    1.4820 N   0  0  0  0  0  0  0  0  0  0  0  0
    4.2943   -0.4736    0.7321 C   0  0  0  0  0  0  0  0  0  0  0  0
    5.1989   -1.2351    1.5043 C   0  0  0  0  0  0  0  0  0  0  0  0
    4.8267   -2.5133    1.9200 C   0  0  0  0  0  0  0  0  0  0  0  0
    5.6870   -3.2382    2.6484 F   0  0  0  0  0  0  0  0  0  0  0  0
    3.5890   -3.0524    1.6011 C   0  0  0  0  0  0  0  0  0  0  0  0
    2.6761   -2.3232    0.8362 C   0  0  0  0  0  0  0  0  0  0  0  0
    3.0552   -1.0397    0.4069 C   0  0  0  0  0  0  0  0  0  0  0  0
    0.7635    0.6252   -1.4439 H   0  0  0  0  0  0  0  0  0  0  0  0
    0.3597   -0.4018   -0.0383 H   0  0  0  0  0  0  0  0  0  0  0  0
    1.0306   -1.1405   -1.5369 H   0  0  0  0  0  0  0  0  0  0  0  0
    2.8013    1.8152   -1.1666 H   0  0  0  0  0  0  0  0  0  0  0  0
    6.3567    1.2888    0.3933 H   0  0  0  0  0  0  0  0  0  0  0  0
    4.4273    6.1561   -0.3155 H   0  0  0  0  0  0  0  0  0  0  0  0
    8.9600    5.1496   -0.3964 H   0  0  0  0  0  0  0  0  0  0  0  0
   11.4022    2.5247    1.6684 H   0  0  0  0  0  0  0  0  0  0  0  0
    9.3741    1.2784    2.4906 H   0  0  0  0  0  0  0  0  0  0  0  0
    6.1737   -0.8463    1.7787 H   0  0  0  0  0  0  0  0  0  0  0  0
    3.3350   -4.0478    1.9533 H   0  0  0  0  0  0  0  0  0  0  0  0
    1.7079   -2.7420    0.5846 H   0  0  0  0  0  0  0  0  0  0  0  0
  1  2  1  0  0  0  0
  1 25  1  0  0  0  0
  1 26  1  0  0  0  0
  1 27  1  0  0  0  0
  2  3  1  0  0  0  0
  2 24  1  0  0  0  0
  3  4  2  0  0  0  0
  3 28  1  0  0  0  0
  4  5  1  0  0  0  0
  4 18  1  0  0  0  0
  5  6  2  0  0  0  0
  5 29  1  0  0  0  0
  6  7  1  0  0  0  0
  6 11  1  0  0  0  0
  7  8  2  0  0  0  0
  7  9  1  0  0  0  0
  9 10  1  0  0  0  0
  9 30  1  0  0  0  0
 10 11  2  0  0  0  0
 11 12  1  0  0  0  0
 12 13  1  0  0  0  0
 12 17  2  0  0  0  0
 13 14  2  0  0  0  0
 13 31  1  0  0  0  0
 14 15  1  0  0  0  0
 15 16  2  0  0  0  0
 15 32  1  0  0  0  0
 16 17  1  0  0  0  0
 16 33  1  0  0  0  0
 18 19  1  0  0  0  0
 18 24  2  0  0  0  0
 19 20  2  0  0  0  0
 19 34  1  0  0  0  0
 20 21  1  0  0  0  0
 20 22  1  0  0  0  0
 22 23  2  0  0  0  0
 22 35  1  0  0  0  0
 23 24  1  0  0  0  0
 23 36  1  0  0  0  0
M  END
$$$$
