CHEMBL2000652
 OpenBabel04072215363D

 43 46  0  0  0  0  0  0  0  0999 V2000
    2.2168    1.4608   -1.5201 N   0  0  0  0  0  0  0  0  0  0  0  0
    1.3706    0.4509   -1.2691 C   0  0  0  0  0  0  0  0  0  0  0  0
    1.7033   -0.7883   -1.6165 N   0  0  0  0  0  0  0  0  0  0  0  0
    0.6737   -1.5240   -1.1969 N   0  0  0  0  0  0  0  0  0  0  0  0
   -0.3263   -0.8093   -0.5979 C   0  0  0  0  0  0  0  0  0  0  0  0
   -1.5273   -1.2501   -0.0384 C   0  0  0  0  0  0  0  0  0  0  0  0
   -2.3754   -0.2856    0.4890 C   0  0  0  0  0  0  0  0  0  0  0  0
   -2.0215    1.0607    0.4591 C   0  0  0  0  0  0  0  0  0  0  0  0
   -0.7891    1.5192   -0.0812 C   0  0  0  0  0  0  0  0  0  0  0  0
   -0.4575    2.9555   -0.0209 C   0  0  0  0  0  0  0  0  0  0  0  0
    0.1487    3.6224   -1.1026 C   0  0  0  0  0  0  0  0  0  0  0  0
    0.5712    4.9501   -0.9957 C   0  0  0  0  0  0  0  0  0  0  0  0
    0.3366    5.6951    0.1562 C   0  0  0  0  0  0  0  0  0  0  0  0
    0.7981    7.0251    0.3386 N   0  0  0  0  0  0  0  0  0  0  0  0
    1.7751    7.6309   -0.4333 C   0  0  0  0  0  0  0  0  0  0  0  0
    2.3546    7.1016   -1.3748 O   0  0  0  0  0  0  0  0  0  0  0  0
    2.0855    8.9069    0.0144 N   0  0  0  0  0  0  0  0  0  0  0  0
    3.0687    9.6714   -0.6597 C   0  0  0  0  0  0  0  0  0  0  0  0
    4.0885   10.2620    0.0911 C   0  0  0  0  0  0  0  0  0  0  0  0
    5.1096   10.9685   -0.5497 C   0  0  0  0  0  0  0  0  0  0  0  0
    5.0873   11.1288   -1.9356 C   0  0  0  0  0  0  0  0  0  0  0  0
    4.0524   10.5655   -2.6793 C   0  0  0  0  0  0  0  0  0  0  0  0
    4.0149   10.7873   -4.3862 Cl  0  0  0  0  0  0  0  0  0  0  0  0
    3.0514    9.8262   -2.0505 C   0  0  0  0  0  0  0  0  0  0  0  0
   -0.3746    5.0824    1.1882 C   0  0  0  0  0  0  0  0  0  0  0  0
   -0.6723    5.7754    2.3003 F   0  0  0  0  0  0  0  0  0  0  0  0
   -0.7459    3.7375    1.1135 C   0  0  0  0  0  0  0  0  0  0  0  0
    0.0823    0.5295   -0.6354 C   0  0  0  0  0  0  0  0  0  0  0  0
    3.1357    1.1880   -1.8521 H   0  0  0  0  0  0  0  0  0  0  0  0
    2.2424    2.2679   -0.9095 H   0  0  0  0  0  0  0  0  0  0  0  0
    0.7105   -2.5252   -1.3444 H   0  0  0  0  0  0  0  0  0  0  0  0
   -1.7954   -2.3014   -0.0172 H   0  0  0  0  0  0  0  0  0  0  0  0
   -3.3244   -0.5828    0.9292 H   0  0  0  0  0  0  0  0  0  0  0  0
   -2.7319    1.7777    0.8692 H   0  0  0  0  0  0  0  0  0  0  0  0
    0.3243    3.1035   -2.0405 H   0  0  0  0  0  0  0  0  0  0  0  0
    1.0851    5.3721   -1.8523 H   0  0  0  0  0  0  0  0  0  0  0  0
    0.4630    7.5062    1.1592 H   0  0  0  0  0  0  0  0  0  0  0  0
    2.0407    9.0219    1.0159 H   0  0  0  0  0  0  0  0  0  0  0  0
    4.1392   10.1202    1.1664 H   0  0  0  0  0  0  0  0  0  0  0  0
    5.9316   11.3790    0.0301 H   0  0  0  0  0  0  0  0  0  0  0  0
    5.8802   11.6851   -2.4293 H   0  0  0  0  0  0  0  0  0  0  0  0
    2.2615    9.3755   -2.6467 H   0  0  0  0  0  0  0  0  0  0  0  0
   -1.2497    3.3009    1.9736 H   0  0  0  0  0  0  0  0  0  0  0  0
  1  2  1  0  0  0  0
  1 29  1  0  0  0  0
  1 30  1  0  0  0  0
  2  3  2  0  0  0  0
  2 28  1  0  0  0  0
  3  4  1  0  0  0  0
  4  5  1  0  0  0  0
  4 31  1  0  0  0  0
  5  6  1  0  0  0  0
  5 28  2  0  0  0  0
  6  7  2  0  0  0  0
  6 32  1  0  0  0  0
  7  8  1  0  0  0  0
  7 33  1  0  0  0  0
  8  9  2  0  0  0  0
  8 34  1  0  0  0  0
  9 10  1  0  0  0  0
  9 28  1  0  0  0  0
 10 11  1  0  0  0  0
 10 27  2  0  0  0  0
 11 12  2  0  0  0  0
 11 35  1  0  0  0  0
 12 13  1  0  0  0  0
 12 36  1  0  0  0  0
 13 14  1  0  0  0  0
 13 25  2  0  0  0  0
 14 15  1  0  0  0  0
 14 37  1  0  0  0  0
 15 16  2  0  0  0  0
 15 17  1  0  0  0  0
 17 18  1  0  0  0  0
 17 38  1  0  0  0  0
 18 19  1  0  0  0  0
 18 24  2  0  0  0  0
 19 20  2  0  0  0  0
 19 39  1  0  0  0  0
 20 21  1  0  0  0  0
 20 40  1  0  0  0  0
 21 22  2  0  0  0  0
 21 41  1  0  0  0  0
 22 23  1  0  0  0  0
 22 24  1  0  0  0  0
 24 42  1  0  0  0  0
 25 26  1  0  0  0  0
 25 27  1  0  0  0  0
 27 43  1  0  0  0  0
M  END
$$$$
