CHEMBL259996
 OpenBabel04072215363D

 46 49  0  0  1  0  0  0  0  0999 V2000
    2.5768    0.9633    2.3898 C   0  0  0  0  0  0  0  0  0  0  0  0
    3.8228    0.4500    1.7743 C   0  0  0  0  0  0  0  0  0  0  0  0
    4.0264   -0.5086    0.7977 C   0  0  0  0  0  0  0  0  0  0  0  0
    5.4058   -0.4949    0.4596 C   0  0  0  0  0  0  0  0  0  0  0  0
    6.2130   -1.1245   -0.5030 C   0  0  0  0  0  0  0  0  0  0  0  0
    7.5630   -0.7474   -0.6040 C   0  0  0  0  0  0  0  0  0  0  0  0
    8.3250   -1.2674   -1.6735 N   0  0  0  0  0  0  0  0  0  0  0  0
    9.4218   -0.6791   -2.2753 C   0  0  0  0  0  0  0  0  0  0  0  0
   10.1665    0.1761   -1.6402 N   0  0  0  0  0  0  0  0  0  0  0  0
   11.2417    0.7592   -2.2517 C   0  0  0  0  0  0  0  0  0  0  0  0
   11.6395    0.5609   -3.4644 N   0  0  0  0  0  0  0  0  0  0  0  0
   10.8874   -0.3195   -4.1340 N   0  0  0  0  0  0  0  0  0  0  0  0
   11.1132   -0.6974   -5.4213 C   0  0  0  0  0  0  0  0  0  0  0  0
   10.1902   -1.6594   -5.7485 C   0  0  0  0  0  0  0  0  0  0  0  0
   10.1242   -2.3420   -6.9190 O   0  0  0  0  0  0  0  0  0  0  0  0
   11.3573   -2.3163   -7.6630 C   0  0  0  0  0  0  0  0  0  0  0  0
   11.3877   -3.4493   -8.6951 C   0  0  1  0  0  0  0  0  0  0  0  0
   11.1436   -4.8114   -8.0635 C   0  0  0  0  0  0  0  0  0  0  0  0
   10.4081   -3.2289   -9.7089 O   0  0  0  0  0  0  0  0  0  0  0  0
    9.2984   -1.8069   -4.6428 C   0  0  0  0  0  0  0  0  0  0  0  0
    8.1037   -2.6909   -4.5983 C   0  0  0  0  0  0  0  0  0  0  0  0
    9.7985   -0.9791   -3.6374 C   0  0  0  0  0  0  0  0  0  0  0  0
    8.0329    0.1666    0.3477 C   0  0  0  0  0  0  0  0  0  0  0  0
    7.3107    0.7724    1.3287 N   0  0  0  0  0  0  0  0  0  0  0  0
    6.0161    0.4210    1.3036 C   0  0  0  0  0  0  0  0  0  0  0  0
    5.0564    0.9514    2.1177 N   0  0  0  0  0  0  0  0  0  0  0  0
    1.6967    0.4921    1.9411 H   0  0  0  0  0  0  0  0  0  0  0  0
    2.4952    2.0439    2.2291 H   0  0  0  0  0  0  0  0  0  0  0  0
    2.5627    0.7694    3.4659 H   0  0  0  0  0  0  0  0  0  0  0  0
    3.2527   -1.0981    0.3232 H   0  0  0  0  0  0  0  0  0  0  0  0
    5.7666   -1.8326   -1.1923 H   0  0  0  0  0  0  0  0  0  0  0  0
    7.8066   -1.9194   -2.2415 H   0  0  0  0  0  0  0  0  0  0  0  0
   11.8146    1.4680   -1.6309 H   0  0  0  0  0  0  0  0  0  0  0  0
   11.9311   -0.2543   -5.9685 H   0  0  0  0  0  0  0  0  0  0  0  0
   12.2152   -2.4561   -6.9927 H   0  0  0  0  0  0  0  0  0  0  0  0
   11.4340   -1.3489   -8.1747 H   0  0  0  0  0  0  0  0  0  0  0  0
   12.3648   -3.4466   -9.1884 H   0  0  0  0  0  0  0  0  0  0  0  0
   10.1414   -4.8748   -7.6268 H   0  0  0  0  0  0  0  0  0  0  0  0
   11.8815   -5.0218   -7.2831 H   0  0  0  0  0  0  0  0  0  0  0  0
   11.2035   -5.5976   -8.8230 H   0  0  0  0  0  0  0  0  0  0  0  0
    9.5555   -3.1018   -9.2536 H   0  0  0  0  0  0  0  0  0  0  0  0
    7.9206   -3.1809   -5.5588 H   0  0  0  0  0  0  0  0  0  0  0  0
    7.2079   -2.1092   -4.3535 H   0  0  0  0  0  0  0  0  0  0  0  0
    8.2310   -3.4716   -3.8416 H   0  0  0  0  0  0  0  0  0  0  0  0
    9.0751    0.4708    0.3657 H   0  0  0  0  0  0  0  0  0  0  0  0
    5.2480    1.6611    2.8095 H   0  0  0  0  0  0  0  0  0  0  0  0
  1  2  1  0  0  0  0
  1 27  1  0  0  0  0
  1 28  1  0  0  0  0
  1 29  1  0  0  0  0
  2  3  2  0  0  0  0
  2 26  1  0  0  0  0
  3  4  1  0  0  0  0
  3 30  1  0  0  0  0
  4  5  1  0  0  0  0
  4 25  2  0  0  0  0
  5  6  2  0  0  0  0
  5 31  1  0  0  0  0
  6  7  1  0  0  0  0
  6 23  1  0  0  0  0
  7  8  1  0  0  0  0
  7 32  1  0  0  0  0
  8  9  2  0  0  0  0
  8 22  1  0  0  0  0
  9 10  1  0  0  0  0
 10 11  2  0  0  0  0
 10 33  1  0  0  0  0
 11 12  1  0  0  0  0
 12 13  1  0  0  0  0
 12 22  1  0  0  0  0
 13 14  2  0  0  0  0
 13 34  1  0  0  0  0
 14 15  1  0  0  0  0
 14 20  1  0  0  0  0
 15 16  1  0  0  0  0
 16 17  1  0  0  0  0
 16 35  1  0  0  0  0
 16 36  1  0  0  0  0
 17 18  1  0  0  0  0
 17 19  1  0  0  0  0
 17 37  1  6  0  0  0
 18 38  1  0  0  0  0
 18 39  1  0  0  0  0
 18 40  1  0  0  0  0
 19 41  1  0  0  0  0
 20 21  1  0  0  0  0
 20 22  2  0  0  0  0
 21 42  1  0  0  0  0
 21 43  1  0  0  0  0
 21 44  1  0  0  0  0
 23 24  2  0  0  0  0
 23 45  1  0  0  0  0
 24 25  1  0  0  0  0
 25 26  1  0  0  0  0
 26 46  1  0  0  0  0
M  END
$$$$
