CHEMBL255974
 OpenBabel04072215363D

 59 63  0  0  0  0  0  0  0  0999 V2000
    5.0059    0.3436    5.4307 C   0  0  0  0  0  0  0  0  0  0  0  0
    5.5752    0.0660    4.1222 N   0  0  0  0  0  0  0  0  0  0  0  0
    4.6411   -0.7058    3.2896 C   0  0  0  0  0  0  0  0  0  0  0  0
    5.1804   -0.9416    1.9216 C   0  0  0  0  0  0  0  0  0  0  0  0
    4.6805   -0.5808    0.7602 N   0  0  0  0  0  0  0  0  0  0  0  0
    5.5886   -0.9892   -0.1869 N   0  0  0  0  0  0  0  0  0  0  0  0
    6.5803   -1.5899    0.4427 C   0  0  0  0  0  0  0  0  0  0  0  0
    7.7895   -2.1644   -0.2299 C   0  0  0  0  0  0  0  0  0  0  0  0
    8.7561   -2.8473    0.4633 C   0  0  0  0  0  0  0  0  0  0  0  0
    9.7098   -3.2395   -0.4233 N   0  0  0  0  0  0  0  0  0  0  0  0
   10.7762   -3.9730   -0.0736 N   0  0  0  0  0  0  0  0  0  0  0  0
   11.5980   -4.1951   -1.0440 C   0  0  0  0  0  0  0  0  0  0  0  0
   11.4784   -3.7404   -2.3223 N   0  0  0  0  0  0  0  0  0  0  0  0
   10.4426   -3.0345   -2.6835 C   0  0  0  0  0  0  0  0  0  0  0  0
   10.3734   -2.6054   -3.9933 N   0  0  0  0  0  0  0  0  0  0  0  0
   11.5111   -2.4495   -4.8297 C   0  0  0  0  0  0  0  0  0  0  0  0
   12.7178   -1.8993   -4.3631 C   0  0  0  0  0  0  0  0  0  0  0  0
   13.8232   -1.7277   -5.2164 C   0  0  0  0  0  0  0  0  0  0  0  0
   15.0844   -1.1667   -4.6488 C   0  0  0  0  0  0  0  0  0  0  0  0
   15.1454   -0.9023   -3.4514 O   0  0  0  0  0  0  0  0  0  0  0  0
   16.1448   -0.9780   -5.5189 N   0  0  0  0  0  0  0  0  0  0  0  0
   17.4209   -0.4956   -5.0915 C   0  0  0  0  0  0  0  0  0  0  0  0
   18.5528   -0.3413   -6.0729 C   0  0  0  0  0  0  0  0  0  0  0  0
   18.6060   -1.4225   -5.0343 C   0  0  0  0  0  0  0  0  0  0  0  0
   13.6948   -2.1017   -6.5600 C   0  0  0  0  0  0  0  0  0  0  0  0
   14.7163   -1.9570   -7.4172 F   0  0  0  0  0  0  0  0  0  0  0  0
   12.5056   -2.6272   -7.0497 C   0  0  0  0  0  0  0  0  0  0  0  0
   11.4276   -2.7897   -6.1871 C   0  0  0  0  0  0  0  0  0  0  0  0
   10.2852   -3.3051   -6.6646 F   0  0  0  0  0  0  0  0  0  0  0  0
    9.4258   -2.7696   -1.6841 C   0  0  0  0  0  0  0  0  0  0  0  0
    8.1909   -2.0996   -1.6227 C   0  0  0  0  0  0  0  0  0  0  0  0
    7.3738   -1.3350   -2.6558 C   0  0  0  0  0  0  0  0  0  0  0  0
    7.7225    0.1557   -2.6476 C   0  0  0  0  0  0  0  0  0  0  0  0
    7.3384   -1.8709   -4.0784 C   0  0  0  0  0  0  0  0  0  0  0  0
    6.3670   -1.6175    1.8066 O   0  0  0  0  0  0  0  0  0  0  0  0
    5.7216    0.9210    6.0242 H   0  0  0  0  0  0  0  0  0  0  0  0
    4.7806   -0.5786    5.9760 H   0  0  0  0  0  0  0  0  0  0  0  0
    4.0931    0.9420    5.3455 H   0  0  0  0  0  0  0  0  0  0  0  0
    6.4402   -0.4665    4.2257 H   0  0  0  0  0  0  0  0  0  0  0  0
    3.6962   -0.1572    3.1932 H   0  0  0  0  0  0  0  0  0  0  0  0
    4.4201   -1.6722    3.7572 H   0  0  0  0  0  0  0  0  0  0  0  0
    8.8538   -3.0937    1.5113 H   0  0  0  0  0  0  0  0  0  0  0  0
   12.4924   -4.8073   -0.8353 H   0  0  0  0  0  0  0  0  0  0  0  0
    9.6184   -3.0566   -4.5018 H   0  0  0  0  0  0  0  0  0  0  0  0
   12.8031   -1.6010   -3.3182 H   0  0  0  0  0  0  0  0  0  0  0  0
   16.0299   -1.2095   -6.5002 H   0  0  0  0  0  0  0  0  0  0  0  0
   17.3546    0.2610   -4.3114 H   0  0  0  0  0  0  0  0  0  0  0  0
   19.2160    0.5072   -5.9511 H   0  0  0  0  0  0  0  0  0  0  0  0
   18.4025   -0.6401   -7.1037 H   0  0  0  0  0  0  0  0  0  0  0  0
   19.2944   -1.3046   -4.2077 H   0  0  0  0  0  0  0  0  0  0  0  0
   18.4771   -2.4477   -5.3617 H   0  0  0  0  0  0  0  0  0  0  0  0
   12.4210   -2.9108   -8.0927 H   0  0  0  0  0  0  0  0  0  0  0  0
    6.3258   -1.4169   -2.3467 H   0  0  0  0  0  0  0  0  0  0  0  0
    8.7790    0.3204   -2.8815 H   0  0  0  0  0  0  0  0  0  0  0  0
    7.5261    0.6012   -1.6656 H   0  0  0  0  0  0  0  0  0  0  0  0
    7.1183    0.7026   -3.3798 H   0  0  0  0  0  0  0  0  0  0  0  0
    8.2315   -1.6037   -4.6422 H   0  0  0  0  0  0  0  0  0  0  0  0
    6.5040   -1.4107   -4.6234 H   0  0  0  0  0  0  0  0  0  0  0  0
    7.1887   -2.9544   -4.1026 H   0  0  0  0  0  0  0  0  0  0  0  0
  1  2  1  0  0  0  0
  1 36  1  0  0  0  0
  1 37  1  0  0  0  0
  1 38  1  0  0  0  0
  2  3  1  0  0  0  0
  2 39  1  0  0  0  0
  3  4  1  0  0  0  0
  3 40  1  0  0  0  0
  3 41  1  0  0  0  0
  4  5  2  0  0  0  0
  4 35  1  0  0  0  0
  5  6  1  0  0  0  0
  6  7  2  0  0  0  0
  7  8  1  0  0  0  0
  7 35  1  0  0  0  0
  8  9  2  0  0  0  0
  8 31  1  0  0  0  0
  9 10  1  0  0  0  0
  9 42  1  0  0  0  0
 10 11  1  0  0  0  0
 10 30  1  0  0  0  0
 11 12  2  0  0  0  0
 12 13  1  0  0  0  0
 12 43  1  0  0  0  0
 13 14  2  0  0  0  0
 14 15  1  0  0  0  0
 14 30  1  0  0  0  0
 15 16  1  0  0  0  0
 15 44  1  0  0  0  0
 16 17  1  0  0  0  0
 16 28  2  0  0  0  0
 17 18  2  0  0  0  0
 17 45  1  0  0  0  0
 18 19  1  0  0  0  0
 18 25  1  0  0  0  0
 19 20  2  0  0  0  0
 19 21  1  0  0  0  0
 21 22  1  0  0  0  0
 21 46  1  0  0  0  0
 22 23  1  0  0  0  0
 22 24  1  0  0  0  0
 22 47  1  0  0  0  0
 23 24  1  0  0  0  0
 23 48  1  0  0  0  0
 23 49  1  0  0  0  0
 24 50  1  0  0  0  0
 24 51  1  0  0  0  0
 25 26  1  0  0  0  0
 25 27  2  0  0  0  0
 27 28  1  0  0  0  0
 27 52  1  0  0  0  0
 28 29  1  0  0  0  0
 30 31  2  0  0  0  0
 31 32  1  0  0  0  0
 32 33  1  0  0  0  0
 32 34  1  0  0  0  0
 32 53  1  0  0  0  0
 33 54  1  0  0  0  0
 33 55  1  0  0  0  0
 33 56  1  0  0  0  0
 34 57  1  0  0  0  0
 34 58  1  0  0  0  0
 34 59  1  0  0  0  0
M  END
$$$$
