CHEMBL407063
 OpenBabel04072215383D

 73 77  0  0  0  0  0  0  0  0999 V2000
    2.5515    0.3118    0.0803 C   0  0  0  0  0  0  0  0  0  0  0  0
    1.0608    0.1253    0.1168 C   0  0  0  0  0  0  0  0  0  0  0  0
    0.2815    1.2484    0.4344 C   0  0  0  0  0  0  0  0  0  0  0  0
   -1.1162    1.2038    0.3971 C   0  0  0  0  0  0  0  0  0  0  0  0
   -1.7873    0.0349    0.0485 C   0  0  0  0  0  0  0  0  0  0  0  0
   -3.1990   -0.0619   -0.0564 N   0  0  0  0  0  0  0  0  0  0  0  0
   -4.1099    0.9626    0.1598 C   0  0  0  0  0  0  0  0  0  0  0  0
   -3.8450    2.1083    0.5097 O   0  0  0  0  0  0  0  0  0  0  0  0
   -5.5534    0.6349   -0.0200 C   0  0  0  0  0  0  0  0  0  0  0  0
   -6.0110   -0.3000   -0.9496 C   0  0  0  0  0  0  0  0  0  0  0  0
   -7.3820   -0.5059   -1.0855 C   0  0  0  0  0  0  0  0  0  0  0  0
   -7.8228   -1.3943   -1.9849 F   0  0  0  0  0  0  0  0  0  0  0  0
   -8.3084    0.1944   -0.3153 C   0  0  0  0  0  0  0  0  0  0  0  0
   -7.8686    1.1353    0.6224 C   0  0  0  0  0  0  0  0  0  0  0  0
   -8.8406    1.8988    1.4890 C   0  0  0  0  0  0  0  0  0  0  0  0
  -10.1418    1.5693    1.2622 F   0  0  0  0  0  0  0  0  0  0  0  0
   -8.6265    1.6790    2.8154 F   0  0  0  0  0  0  0  0  0  0  0  0
   -8.7575    3.2445    1.3110 F   0  0  0  0  0  0  0  0  0  0  0  0
   -6.4860    1.3550    0.7519 C   0  0  0  0  0  0  0  0  0  0  0  0
   -1.0214   -1.1055   -0.2225 C   0  0  0  0  0  0  0  0  0  0  0  0
    0.3942   -1.0798   -0.1767 C   0  0  0  0  0  0  0  0  0  0  0  0
    1.0755   -2.3715   -0.5155 C   0  0  0  0  0  0  0  0  0  0  0  0
    0.5571   -3.0871   -1.3654 O   0  0  0  0  0  0  0  0  0  0  0  0
    2.2133   -2.6827    0.2069 N   0  0  0  0  0  0  0  0  0  0  0  0
    2.9772   -3.8661    0.0865 C   0  0  0  0  0  0  0  0  0  0  0  0
    2.6898   -4.9331   -0.7331 C   0  0  0  0  0  0  0  0  0  0  0  0
    3.4351   -6.0543   -0.7839 N   0  0  0  0  0  0  0  0  0  0  0  0
    4.5157   -6.1435    0.0101 C   0  0  0  0  0  0  0  0  0  0  0  0
    5.2744   -7.3156    0.0049 N   0  0  0  0  0  0  0  0  0  0  0  0
    5.4547   -8.1861   -1.0824 C   0  0  0  0  0  0  0  0  0  0  0  0
    5.3583   -7.7387   -2.4006 C   0  0  0  0  0  0  0  0  0  0  0  0
    5.4436   -8.6303   -3.4673 C   0  0  0  0  0  0  0  0  0  0  0  0
    5.6188  -10.0058   -3.2718 C   0  0  0  0  0  0  0  0  0  0  0  0
    5.6677  -10.8372   -4.3737 N   0  0  0  0  0  0  0  0  0  0  0  0
    6.2964  -12.1613   -4.3311 C   0  0  0  0  0  0  0  0  0  0  0  0
    6.7991  -12.5131   -5.7558 C   0  0  0  0  0  0  0  0  0  0  0  0
    5.7295  -12.4602   -6.7835 N   0  0  0  0  0  0  0  0  0  0  0  0
    6.2824  -12.7092   -8.1126 C   0  0  0  0  0  0  0  0  0  0  0  0
    5.0745  -11.1306   -6.7447 C   0  0  0  0  0  0  0  0  0  0  0  0
    4.5508  -10.7670   -5.3382 C   0  0  0  0  0  0  0  0  0  0  0  0
    5.7780  -10.4400   -1.9505 C   0  0  0  0  0  0  0  0  0  0  0  0
    5.7038   -9.5422   -0.8683 C   0  0  0  0  0  0  0  0  0  0  0  0
    4.8906   -5.1622    0.8424 N   0  0  0  0  0  0  0  0  0  0  0  0
    4.1187   -4.0476    0.8480 C   0  0  0  0  0  0  0  0  0  0  0  0
    2.8140    1.3733    0.0080 H   0  0  0  0  0  0  0  0  0  0  0  0
    2.9865   -0.1758   -0.7980 H   0  0  0  0  0  0  0  0  0  0  0  0
    3.0141   -0.0706    0.9947 H   0  0  0  0  0  0  0  0  0  0  0  0
    0.7549    2.1964    0.6877 H   0  0  0  0  0  0  0  0  0  0  0  0
   -1.6445    2.1218    0.6329 H   0  0  0  0  0  0  0  0  0  0  0  0
   -3.5612   -0.9765   -0.2902 H   0  0  0  0  0  0  0  0  0  0  0  0
   -5.3396   -0.8481   -1.6010 H   0  0  0  0  0  0  0  0  0  0  0  0
   -9.3695    0.0016   -0.4607 H   0  0  0  0  0  0  0  0  0  0  0  0
   -6.1287    2.1017    1.4642 H   0  0  0  0  0  0  0  0  0  0  0  0
   -1.5160   -2.0382   -0.4908 H   0  0  0  0  0  0  0  0  0  0  0  0
    2.5000   -2.0457    0.9359 H   0  0  0  0  0  0  0  0  0  0  0  0
    1.8320   -4.9579   -1.3958 H   0  0  0  0  0  0  0  0  0  0  0  0
    6.0500   -7.2502    0.6467 H   0  0  0  0  0  0  0  0  0  0  0  0
    5.2107   -6.6853   -2.6219 H   0  0  0  0  0  0  0  0  0  0  0  0
    5.3856   -8.2270   -4.4746 H   0  0  0  0  0  0  0  0  0  0  0  0
    5.5793  -12.9154   -3.9827 H   0  0  0  0  0  0  0  0  0  0  0  0
    7.1595  -12.1708   -3.6556 H   0  0  0  0  0  0  0  0  0  0  0  0
    7.2353  -13.5179   -5.7321 H   0  0  0  0  0  0  0  0  0  0  0  0
    7.6025  -11.8103   -6.0190 H   0  0  0  0  0  0  0  0  0  0  0  0
    6.7410  -13.7025   -8.1559 H   0  0  0  0  0  0  0  0  0  0  0  0
    7.0379  -11.9670   -8.3958 H   0  0  0  0  0  0  0  0  0  0  0  0
    5.4871  -12.6938   -8.8658 H   0  0  0  0  0  0  0  0  0  0  0  0
    4.2300  -11.1163   -7.4438 H   0  0  0  0  0  0  0  0  0  0  0  0
    5.7801  -10.3509   -7.0643 H   0  0  0  0  0  0  0  0  0  0  0  0
    3.7600  -11.4677   -5.0379 H   0  0  0  0  0  0  0  0  0  0  0  0
    4.0901   -9.7748   -5.3901 H   0  0  0  0  0  0  0  0  0  0  0  0
    5.9181  -11.4944   -1.7302 H   0  0  0  0  0  0  0  0  0  0  0  0
    5.7849   -9.9283    0.1446 H   0  0  0  0  0  0  0  0  0  0  0  0
    4.4770   -3.2716    1.5184 H   0  0  0  0  0  0  0  0  0  0  0  0
  1  2  1  0  0  0  0
  1 45  1  0  0  0  0
  1 46  1  0  0  0  0
  1 47  1  0  0  0  0
  2  3  1  0  0  0  0
  2 21  2  0  0  0  0
  3  4  2  0  0  0  0
  3 48  1  0  0  0  0
  4  5  1  0  0  0  0
  4 49  1  0  0  0  0
  5  6  1  0  0  0  0
  5 20  2  0  0  0  0
  6  7  1  0  0  0  0
  6 50  1  0  0  0  0
  7  8  2  0  0  0  0
  7  9  1  0  0  0  0
  9 10  1  0  0  0  0
  9 19  2  0  0  0  0
 10 11  2  0  0  0  0
 10 51  1  0  0  0  0
 11 12  1  0  0  0  0
 11 13  1  0  0  0  0
 13 14  2  0  0  0  0
 13 52  1  0  0  0  0
 14 15  1  0  0  0  0
 14 19  1  0  0  0  0
 15 16  1  0  0  0  0
 15 17  1  0  0  0  0
 15 18  1  0  0  0  0
 19 53  1  0  0  0  0
 20 21  1  0  0  0  0
 20 54  1  0  0  0  0
 21 22  1  0  0  0  0
 22 23  2  0  0  0  0
 22 24  1  0  0  0  0
 24 25  1  0  0  0  0
 24 55  1  0  0  0  0
 25 26  1  0  0  0  0
 25 44  2  0  0  0  0
 26 27  2  0  0  0  0
 26 56  1  0  0  0  0
 27 28  1  0  0  0  0
 28 29  1  0  0  0  0
 28 43  2  0  0  0  0
 29 30  1  0  0  0  0
 29 57  1  0  0  0  0
 30 31  1  0  0  0  0
 30 42  2  0  0  0  0
 31 32  2  0  0  0  0
 31 58  1  0  0  0  0
 32 33  1  0  0  0  0
 32 59  1  0  0  0  0
 33 34  1  0  0  0  0
 33 41  2  0  0  0  0
 34 35  1  0  0  0  0
 34 40  1  0  0  0  0
 35 36  1  0  0  0  0
 35 60  1  0  0  0  0
 35 61  1  0  0  0  0
 36 37  1  0  0  0  0
 36 62  1  0  0  0  0
 36 63  1  0  0  0  0
 37 38  1  0  0  0  0
 37 39  1  0  0  0  0
 38 64  1  0  0  0  0
 38 65  1  0  0  0  0
 38 66  1  0  0  0  0
 39 40  1  0  0  0  0
 39 67  1  0  0  0  0
 39 68  1  0  0  0  0
 40 69  1  0  0  0  0
 40 70  1  0  0  0  0
 41 42  1  0  0  0  0
 41 71  1  0  0  0  0
 42 72  1  0  0  0  0
 43 44  1  0  0  0  0
 44 73  1  0  0  0  0
M  END
$$$$
