CHEMBL432491
 OpenBabel04072215383D

 38 41  0  0  0  0  0  0  0  0999 V2000
    4.3964   -0.5447    0.3729 N   0  0  0  0  0  0  0  0  0  0  0  0
    2.9052    0.1628    0.0671 S   0  0  0  0  0  0  0  0  0  0  0  0
    2.0433   -0.8808   -0.4483 O   0  0  0  0  0  0  0  0  0  0  0  0
    2.5900    0.9200    1.2529 O   0  0  0  0  0  0  0  0  0  0  0  0
    3.2826    1.2832   -1.2516 C   0  0  0  0  0  0  0  0  0  0  0  0
    3.8234    0.7635   -2.4452 C   0  0  0  0  0  0  0  0  0  0  0  0
    4.1358    1.6217   -3.4994 C   0  0  0  0  0  0  0  0  0  0  0  0
    3.8874    2.9690   -3.3177 C   0  0  0  0  0  0  0  0  0  0  0  0
    3.3598    3.4997   -2.1319 C   0  0  0  0  0  0  0  0  0  0  0  0
    3.0517    2.6591   -1.0773 C   0  0  0  0  0  0  0  0  0  0  0  0
    3.2658    4.9536   -2.3502 C   0  0  0  0  0  0  0  0  0  0  0  0
    2.8806    5.8788   -1.4548 C   0  0  0  0  0  0  0  0  0  0  0  0
    2.9290    7.2638   -1.7365 C   0  0  0  0  0  0  0  0  0  0  0  0
    1.8350    7.8782   -2.3051 N   0  0  0  0  0  0  0  0  0  0  0  0
    2.1008    9.2124   -2.5076 C   0  0  0  0  0  0  0  0  0  0  0  0
    3.3855    9.4603   -2.0741 C   0  0  0  0  0  0  0  0  0  0  0  0
    3.9012    8.2301   -1.5850 C   0  0  0  0  0  0  0  0  0  0  0  0
    5.2832    8.1667   -1.0559 C   0  0  0  0  0  0  0  0  0  0  0  0
    6.0922    9.3261   -1.6526 C   0  0  0  0  0  0  0  0  0  0  0  0
    5.4193   10.6101   -1.5913 O   0  0  0  0  0  0  0  0  0  0  0  0
    4.1339   10.7092   -2.0747 C   0  0  0  0  0  0  0  0  0  0  0  0
    3.6575   11.7841   -2.4206 O   0  0  0  0  0  0  0  0  0  0  0  0
    3.7293    5.2142   -3.7661 C   0  0  0  0  0  0  0  0  0  0  0  0
    3.7621    6.2585   -4.3856 O   0  0  0  0  0  0  0  0  0  0  0  0
    4.1014    3.9725   -4.2521 N   0  0  0  0  0  0  0  0  0  0  0  0
    4.2768   -1.5550    0.4772 H   0  0  0  0  0  0  0  0  0  0  0  0
    4.8358   -0.1074    1.1799 H   0  0  0  0  0  0  0  0  0  0  0  0
    3.9991   -0.3056   -2.5493 H   0  0  0  0  0  0  0  0  0  0  0  0
    4.5531    1.2403   -4.4251 H   0  0  0  0  0  0  0  0  0  0  0  0
    2.6421    3.0454   -0.1485 H   0  0  0  0  0  0  0  0  0  0  0  0
    2.5870    5.5889   -0.4511 H   0  0  0  0  0  0  0  0  0  0  0  0
    0.9745    7.4170   -2.5674 H   0  0  0  0  0  0  0  0  0  0  0  0
    1.3638    9.8669   -2.9559 H   0  0  0  0  0  0  0  0  0  0  0  0
    5.7635    7.2141   -1.3042 H   0  0  0  0  0  0  0  0  0  0  0  0
    5.2470    8.2592    0.0352 H   0  0  0  0  0  0  0  0  0  0  0  0
    6.3428    9.1368   -2.7033 H   0  0  0  0  0  0  0  0  0  0  0  0
    7.0360    9.4303   -1.1067 H   0  0  0  0  0  0  0  0  0  0  0  0
    4.4480    3.8458   -5.1913 H   0  0  0  0  0  0  0  0  0  0  0  0
  1  2  1  0  0  0  0
  1 26  1  0  0  0  0
  1 27  1  0  0  0  0
  2  3  2  0  0  0  0
  2  4  2  0  0  0  0
  2  5  1  0  0  0  0
  5  6  1  0  0  0  0
  5 10  2  0  0  0  0
  6  7  2  0  0  0  0
  6 28  1  0  0  0  0
  7  8  1  0  0  0  0
  7 29  1  0  0  0  0
  8  9  2  0  0  0  0
  8 25  1  0  0  0  0
  9 10  1  0  0  0  0
  9 11  1  0  0  0  0
 10 30  1  0  0  0  0
 11 12  2  0  0  0  0
 11 23  1  0  0  0  0
 12 13  1  0  0  0  0
 12 31  1  0  0  0  0
 13 14  1  0  0  0  0
 13 17  2  0  0  0  0
 14 15  1  0  0  0  0
 14 32  1  0  0  0  0
 15 16  2  0  0  0  0
 15 33  1  0  0  0  0
 16 17  1  0  0  0  0
 16 21  1  0  0  0  0
 17 18  1  0  0  0  0
 18 19  1  0  0  0  0
 18 34  1  0  0  0  0
 18 35  1  0  0  0  0
 19 20  1  0  0  0  0
 19 36  1  0  0  0  0
 19 37  1  0  0  0  0
 20 21  1  0  0  0  0
 21 22  2  0  0  0  0
 23 24  2  0  0  0  0
 23 25  1  0  0  0  0
 25 38  1  0  0  0  0
M  END
$$$$
