CHEMBL2018775
 OpenBabel04072215363D

 62 64  0  0  0  0  0  0  0  0999 V2000
    3.3618    2.6973   -0.0419 C   0  0  0  0  0  0  0  0  0  0  0  0
    3.6034    1.2079    0.0597 C   0  0  0  0  0  0  0  0  0  0  0  0
    4.2304    0.6118   -1.2027 C   0  0  0  0  0  0  0  0  0  0  0  0
    4.4839   -0.8623   -0.9325 C   0  0  0  0  0  0  0  0  0  0  0  0
    5.0663   -1.5602   -2.0221 O   0  0  0  0  0  0  0  0  0  0  0  0
    6.4112   -1.8013   -2.0382 C   0  0  0  0  0  0  0  0  0  0  0  0
    6.8982   -1.7543   -3.3532 C   0  0  0  0  0  0  0  0  0  0  0  0
    8.2702   -1.9046   -3.6532 C   0  0  0  0  0  0  0  0  0  0  0  0
    8.8328   -1.8114   -4.9343 C   0  0  0  0  0  0  0  0  0  0  0  0
    8.0103   -1.5108   -6.0550 N   0  0  0  0  0  0  0  0  0  0  0  0
    8.5200   -1.0413   -7.2911 C   0  0  0  0  0  0  0  0  0  0  0  0
    9.4983   -0.0389   -7.3244 C   0  0  0  0  0  0  0  0  0  0  0  0
   10.0732    0.3620   -8.5313 C   0  0  0  0  0  0  0  0  0  0  0  0
    9.6505   -0.2265   -9.7211 C   0  0  0  0  0  0  0  0  0  0  0  0
   10.4827    0.2649  -11.3448 Br  0  0  0  0  0  0  0  0  0  0  0  0
    8.6380   -1.1845   -9.7222 C   0  0  0  0  0  0  0  0  0  0  0  0
    8.0769   -1.5762   -8.5035 C   0  0  0  0  0  0  0  0  0  0  0  0
    7.1154   -2.5124   -8.5049 F   0  0  0  0  0  0  0  0  0  0  0  0
   10.1571   -1.9546   -5.1369 N   0  0  0  0  0  0  0  0  0  0  0  0
   10.9163   -2.1731   -4.0640 C   0  0  0  0  0  0  0  0  0  0  0  0
   10.4869   -2.2581   -2.8034 N   0  0  0  0  0  0  0  0  0  0  0  0
    9.1697   -2.1226   -2.6043 C   0  0  0  0  0  0  0  0  0  0  0  0
    8.6764   -2.2203   -1.3128 C   0  0  0  0  0  0  0  0  0  0  0  0
    7.3067   -2.1234   -1.0043 C   0  0  0  0  0  0  0  0  0  0  0  0
    7.0727   -2.4221    0.3202 O   0  0  0  0  0  0  0  0  0  0  0  0
    5.8156   -3.0180    0.6246 C   0  0  0  0  0  0  0  0  0  0  0  0
    5.8677   -4.3710    1.3322 C   0  0  0  0  0  0  0  0  0  0  0  0
    4.4982   -4.9306    1.4831 N   0  0  0  0  0  0  0  0  0  0  0  0
    3.7519   -5.0598    0.2136 C   0  0  0  0  0  0  0  0  0  0  0  0
    4.3541   -6.0088   -0.8158 C   0  0  0  0  0  0  0  0  0  0  0  0
    4.5319   -6.1708    2.2729 C   0  0  0  0  0  0  0  0  0  0  0  0
    3.1498   -6.7548    2.5523 C   0  0  0  0  0  0  0  0  0  0  0  0
    2.9927    3.0756    0.9173 H   0  0  0  0  0  0  0  0  0  0  0  0
    2.6137    2.9196   -0.8071 H   0  0  0  0  0  0  0  0  0  0  0  0
    4.2868    3.2295   -0.2843 H   0  0  0  0  0  0  0  0  0  0  0  0
    2.6511    0.7031    0.2725 H   0  0  0  0  0  0  0  0  0  0  0  0
    4.2564    1.0171    0.9201 H   0  0  0  0  0  0  0  0  0  0  0  0
    5.1835    1.1048   -1.4326 H   0  0  0  0  0  0  0  0  0  0  0  0
    3.5847    0.7421   -2.0769 H   0  0  0  0  0  0  0  0  0  0  0  0
    3.5280   -1.3610   -0.7245 H   0  0  0  0  0  0  0  0  0  0  0  0
    5.0909   -0.8937   -0.0351 H   0  0  0  0  0  0  0  0  0  0  0  0
    6.1862   -1.5779   -4.1579 H   0  0  0  0  0  0  0  0  0  0  0  0
    7.2951   -2.2202   -6.1787 H   0  0  0  0  0  0  0  0  0  0  0  0
    9.8434    0.4154   -6.3977 H   0  0  0  0  0  0  0  0  0  0  0  0
   10.8578    1.1132   -8.5214 H   0  0  0  0  0  0  0  0  0  0  0  0
    8.2952   -1.6435  -10.6385 H   0  0  0  0  0  0  0  0  0  0  0  0
   11.9795   -2.2914   -4.2322 H   0  0  0  0  0  0  0  0  0  0  0  0
    9.3842   -2.4114   -0.5090 H   0  0  0  0  0  0  0  0  0  0  0  0
    5.2650   -3.1600   -0.2918 H   0  0  0  0  0  0  0  0  0  0  0  0
    5.2769   -2.3340    1.2939 H   0  0  0  0  0  0  0  0  0  0  0  0
    6.3152   -4.2139    2.3237 H   0  0  0  0  0  0  0  0  0  0  0  0
    6.5431   -5.0543    0.8042 H   0  0  0  0  0  0  0  0  0  0  0  0
    3.6063   -4.0780   -0.2464 H   0  0  0  0  0  0  0  0  0  0  0  0
    2.7155   -5.3539    0.4132 H   0  0  0  0  0  0  0  0  0  0  0  0
    5.4253   -5.8443   -0.9626 H   0  0  0  0  0  0  0  0  0  0  0  0
    3.8706   -5.8562   -1.7863 H   0  0  0  0  0  0  0  0  0  0  0  0
    4.2001   -7.0508   -0.5230 H   0  0  0  0  0  0  0  0  0  0  0  0
    4.9892   -5.9462    3.2480 H   0  0  0  0  0  0  0  0  0  0  0  0
    5.1542   -6.9269    1.7913 H   0  0  0  0  0  0  0  0  0  0  0  0
    2.4987   -6.0215    3.0384 H   0  0  0  0  0  0  0  0  0  0  0  0
    3.2394   -7.6225    3.2131 H   0  0  0  0  0  0  0  0  0  0  0  0
    2.6599   -7.1029    1.6378 H   0  0  0  0  0  0  0  0  0  0  0  0
  1  2  1  0  0  0  0
  1 33  1  0  0  0  0
  1 34  1  0  0  0  0
  1 35  1  0  0  0  0
  2  3  1  0  0  0  0
  2 36  1  0  0  0  0
  2 37  1  0  0  0  0
  3  4  1  0  0  0  0
  3 38  1  0  0  0  0
  3 39  1  0  0  0  0
  4  5  1  0  0  0  0
  4 40  1  0  0  0  0
  4 41  1  0  0  0  0
  5  6  1  0  0  0  0
  6  7  1  0  0  0  0
  6 24  2  0  0  0  0
  7  8  2  0  0  0  0
  7 42  1  0  0  0  0
  8  9  1  0  0  0  0
  8 22  1  0  0  0  0
  9 10  1  0  0  0  0
  9 19  2  0  0  0  0
 10 11  1  0  0  0  0
 10 43  1  0  0  0  0
 11 12  1  0  0  0  0
 11 17  2  0  0  0  0
 12 13  2  0  0  0  0
 12 44  1  0  0  0  0
 13 14  1  0  0  0  0
 13 45  1  0  0  0  0
 14 15  1  0  0  0  0
 14 16  2  0  0  0  0
 16 17  1  0  0  0  0
 16 46  1  0  0  0  0
 17 18  1  0  0  0  0
 19 20  1  0  0  0  0
 20 21  2  0  0  0  0
 20 47  1  0  0  0  0
 21 22  1  0  0  0  0
 22 23  2  0  0  0  0
 23 24  1  0  0  0  0
 23 48  1  0  0  0  0
 24 25  1  0  0  0  0
 25 26  1  0  0  0  0
 26 27  1  0  0  0  0
 26 49  1  0  0  0  0
 26 50  1  0  0  0  0
 27 28  1  0  0  0  0
 27 51  1  0  0  0  0
 27 52  1  0  0  0  0
 28 29  1  0  0  0  0
 28 31  1  0  0  0  0
 29 30  1  0  0  0  0
 29 53  1  0  0  0  0
 29 54  1  0  0  0  0
 30 55  1  0  0  0  0
 30 56  1  0  0  0  0
 30 57  1  0  0  0  0
 31 32  1  0  0  0  0
 31 58  1  0  0  0  0
 31 59  1  0  0  0  0
 32 60  1  0  0  0  0
 32 61  1  0  0  0  0
 32 62  1  0  0  0  0
M  END
$$$$
