CHEMBL410663
 OpenBabel04072215383D

 45 48  0  0  0  0  0  0  0  0999 V2000
    1.1965    2.0395    3.2188 N   0  0  0  0  0  0  0  0  0  0  0  0
    1.4723    0.9492    2.4823 C   0  0  0  0  0  0  0  0  0  0  0  0
    1.8691   -0.1868    3.0575 N   0  0  0  0  0  0  0  0  0  0  0  0
    2.0722   -1.0825    2.0328 O   0  0  0  0  0  0  0  0  0  0  0  0
    1.7818   -0.4910    0.8493 C   0  0  0  0  0  0  0  0  0  0  0  0
    1.8732   -1.1351   -0.3846 C   0  0  0  0  0  0  0  0  0  0  0  0
    1.5126   -0.3893   -1.4981 C   0  0  0  0  0  0  0  0  0  0  0  0
    1.0984    0.9334   -1.3638 C   0  0  0  0  0  0  0  0  0  0  0  0
    1.0228    1.5969   -0.1041 C   0  0  0  0  0  0  0  0  0  0  0  0
    0.5760    2.9957   -0.0153 C   0  0  0  0  0  0  0  0  0  0  0  0
   -0.2852    3.4098    1.0018 C   0  0  0  0  0  0  0  0  0  0  0  0
   -0.6139    4.7527    1.1918 C   0  0  0  0  0  0  0  0  0  0  0  0
   -0.2204    5.7337    0.2848 C   0  0  0  0  0  0  0  0  0  0  0  0
   -0.6184    7.0886    0.4120 N   0  0  0  0  0  0  0  0  0  0  0  0
   -1.3006    7.6246    1.4912 C   0  0  0  0  0  0  0  0  0  0  0  0
   -1.5551    7.0288    2.5385 O   0  0  0  0  0  0  0  0  0  0  0  0
   -1.7223    8.9274    1.2676 N   0  0  0  0  0  0  0  0  0  0  0  0
   -2.4690    9.6008    2.2656 C   0  0  0  0  0  0  0  0  0  0  0  0
   -3.6685   10.2179    1.9094 C   0  0  0  0  0  0  0  0  0  0  0  0
   -4.4534   10.8258    2.8907 C   0  0  0  0  0  0  0  0  0  0  0  0
   -4.0256   10.8475    4.2168 C   0  0  0  0  0  0  0  0  0  0  0  0
   -4.8020   11.4556    5.1215 F   0  0  0  0  0  0  0  0  0  0  0  0
   -2.8266   10.2527    4.5974 C   0  0  0  0  0  0  0  0  0  0  0  0
   -2.3745   10.2614    6.0280 C   0  0  0  0  0  0  0  0  0  0  0  0
   -3.2088   10.9000    6.8927 F   0  0  0  0  0  0  0  0  0  0  0  0
   -2.2171    9.0053    6.5327 F   0  0  0  0  0  0  0  0  0  0  0  0
   -1.1625   10.8697    6.1768 F   0  0  0  0  0  0  0  0  0  0  0  0
   -2.0499    9.6256    3.6064 C   0  0  0  0  0  0  0  0  0  0  0  0
    0.5584    5.3338   -0.8033 C   0  0  0  0  0  0  0  0  0  0  0  0
    0.9668    3.9880   -0.9353 C   0  0  0  0  0  0  0  0  0  0  0  0
    1.3802    0.8237    1.0478 C   0  0  0  0  0  0  0  0  0  0  0  0
    1.3754    1.9992    4.2179 H   0  0  0  0  0  0  0  0  0  0  0  0
    1.2083    2.9768    2.8391 H   0  0  0  0  0  0  0  0  0  0  0  0
    2.1950   -2.1670   -0.4576 H   0  0  0  0  0  0  0  0  0  0  0  0
    1.5477   -0.8456   -2.4852 H   0  0  0  0  0  0  0  0  0  0  0  0
    0.7983    1.4697   -2.2652 H   0  0  0  0  0  0  0  0  0  0  0  0
   -0.7038    2.6904    1.7013 H   0  0  0  0  0  0  0  0  0  0  0  0
   -1.2034    4.9741    2.0762 H   0  0  0  0  0  0  0  0  0  0  0  0
   -0.3064    7.7300   -0.3042 H   0  0  0  0  0  0  0  0  0  0  0  0
   -1.9816    9.1164    0.3089 H   0  0  0  0  0  0  0  0  0  0  0  0
   -4.0419   10.1693    0.8900 H   0  0  0  0  0  0  0  0  0  0  0  0
   -5.4113   11.2703    2.6356 H   0  0  0  0  0  0  0  0  0  0  0  0
   -1.1127    9.1459    3.8913 H   0  0  0  0  0  0  0  0  0  0  0  0
    0.8739    6.0492   -1.5596 H   0  0  0  0  0  0  0  0  0  0  0  0
    1.5999    3.7260   -1.7839 H   0  0  0  0  0  0  0  0  0  0  0  0
  1  2  1  0  0  0  0
  1 32  1  0  0  0  0
  1 33  1  0  0  0  0
  2  3  2  0  0  0  0
  2 31  1  0  0  0  0
  3  4  1  0  0  0  0
  4  5  1  0  0  0  0
  5  6  1  0  0  0  0
  5 31  2  0  0  0  0
  6  7  2  0  0  0  0
  6 34  1  0  0  0  0
  7  8  1  0  0  0  0
  7 35  1  0  0  0  0
  8  9  2  0  0  0  0
  8 36  1  0  0  0  0
  9 10  1  0  0  0  0
  9 31  1  0  0  0  0
 10 11  1  0  0  0  0
 10 30  2  0  0  0  0
 11 12  2  0  0  0  0
 11 37  1  0  0  0  0
 12 13  1  0  0  0  0
 12 38  1  0  0  0  0
 13 14  1  0  0  0  0
 13 29  2  0  0  0  0
 14 15  1  0  0  0  0
 14 39  1  0  0  0  0
 15 16  2  0  0  0  0
 15 17  1  0  0  0  0
 17 18  1  0  0  0  0
 17 40  1  0  0  0  0
 18 19  1  0  0  0  0
 18 28  2  0  0  0  0
 19 20  2  0  0  0  0
 19 41  1  0  0  0  0
 20 21  1  0  0  0  0
 20 42  1  0  0  0  0
 21 22  1  0  0  0  0
 21 23  2  0  0  0  0
 23 24  1  0  0  0  0
 23 28  1  0  0  0  0
 24 25  1  0  0  0  0
 24 26  1  0  0  0  0
 24 27  1  0  0  0  0
 28 43  1  0  0  0  0
 29 30  1  0  0  0  0
 29 44  1  0  0  0  0
 30 45  1  0  0  0  0
M  END
$$$$
