CHEMBL3927752
 OpenBabel04072215373D

 50 53  0  0  0  0  0  0  0  0999 V2000
    1.3362   -0.1858    0.8012 C   0  0  0  0  0  0  0  0  0  0  0  0
    2.3560   -0.0344   -0.0649 C   0  0  0  0  0  0  0  0  0  0  0  0
    2.7428    1.3211   -0.5734 C   0  0  0  0  0  0  0  0  0  0  0  0
    2.5282    2.4785    0.1863 C   0  0  0  0  0  0  0  0  0  0  0  0
    2.8872    3.7293   -0.3078 C   0  0  0  0  0  0  0  0  0  0  0  0
    3.5095    3.8553   -1.5478 C   0  0  0  0  0  0  0  0  0  0  0  0
    3.8253    2.7204   -2.2940 C   0  0  0  0  0  0  0  0  0  0  0  0
    4.5667    2.7645   -3.4989 N   0  0  0  0  0  0  0  0  0  0  0  0
    5.1249    3.8919   -4.0864 C   0  0  0  0  0  0  0  0  0  0  0  0
    5.9650    3.5799   -5.2999 C   0  0  0  0  0  0  0  0  0  0  0  0
    5.0323    5.0486   -3.6967 O   0  0  0  0  0  0  0  0  0  0  0  0
    3.4160    1.4673   -1.8062 C   0  0  0  0  0  0  0  0  0  0  0  0
    3.1189   -1.2631   -0.3995 C   0  0  0  0  0  0  0  0  0  0  0  0
    2.6209   -2.2745   -1.2408 C   0  0  0  0  0  0  0  0  0  0  0  0
    3.4149   -3.3909   -1.5969 C   0  0  0  0  0  0  0  0  0  0  0  0
    4.7772   -3.3752   -1.2293 C   0  0  0  0  0  0  0  0  0  0  0  0
    5.9651   -4.1889   -1.3061 C   0  0  0  0  0  0  0  0  0  0  0  0
    6.3581   -5.2643   -0.3942 C   0  0  0  0  0  0  0  0  0  0  0  0
    5.7846   -5.4464    0.8107 C   0  0  0  0  0  0  0  0  0  0  0  0
    6.5685   -5.6162    2.0589 C   0  0  0  0  0  0  0  0  0  0  0  0
    7.7408   -4.8665    2.2870 C   0  0  0  0  0  0  0  0  0  0  0  0
    8.3236   -4.8031    3.5584 C   0  0  0  0  0  0  0  0  0  0  0  0
    7.7445   -5.4884    4.6214 C   0  0  0  0  0  0  0  0  0  0  0  0
    6.5960   -6.2505    4.4078 C   0  0  0  0  0  0  0  0  0  0  0  0
    6.0112   -6.3114    3.1362 C   0  0  0  0  0  0  0  0  0  0  0  0
    6.9839   -3.3287   -1.5300 N   0  0  0  0  0  0  0  0  0  0  0  0
    6.6059   -2.2889   -0.7627 N   0  0  0  0  0  0  0  0  0  0  0  0
    5.2529   -2.2472   -0.5686 C   0  0  0  0  0  0  0  0  0  0  0  0
    4.4490   -1.2890    0.0275 C   0  0  0  0  0  0  0  0  0  0  0  0
    0.7259    0.6469    1.1368 H   0  0  0  0  0  0  0  0  0  0  0  0
    1.0798   -1.1518    1.2279 H   0  0  0  0  0  0  0  0  0  0  0  0
    2.0941    2.4251    1.1791 H   0  0  0  0  0  0  0  0  0  0  0  0
    2.6765    4.6202    0.2788 H   0  0  0  0  0  0  0  0  0  0  0  0
    3.7492    4.8553   -1.8898 H   0  0  0  0  0  0  0  0  0  0  0  0
    4.7562    1.8696   -3.9364 H   0  0  0  0  0  0  0  0  0  0  0  0
    5.6318    2.6703   -5.8046 H   0  0  0  0  0  0  0  0  0  0  0  0
    7.0091    3.4698   -4.9921 H   0  0  0  0  0  0  0  0  0  0  0  0
    5.8853    4.4126   -6.0065 H   0  0  0  0  0  0  0  0  0  0  0  0
    3.6355    0.5801   -2.3970 H   0  0  0  0  0  0  0  0  0  0  0  0
    1.6187   -2.1783   -1.6589 H   0  0  0  0  0  0  0  0  0  0  0  0
    3.0166   -4.1576   -2.2568 H   0  0  0  0  0  0  0  0  0  0  0  0
    7.4054   -5.5505   -0.5148 H   0  0  0  0  0  0  0  0  0  0  0  0
    4.7602   -5.1295    0.9898 H   0  0  0  0  0  0  0  0  0  0  0  0
    8.1839   -4.2696    1.4926 H   0  0  0  0  0  0  0  0  0  0  0  0
    9.2052   -4.1875    3.7262 H   0  0  0  0  0  0  0  0  0  0  0  0
    8.1739   -5.4144    5.6179 H   0  0  0  0  0  0  0  0  0  0  0  0
    6.1339   -6.7725    5.2419 H   0  0  0  0  0  0  0  0  0  0  0  0
    5.0904   -6.8743    3.0063 H   0  0  0  0  0  0  0  0  0  0  0  0
    7.2938   -1.5905   -0.5148 H   0  0  0  0  0  0  0  0  0  0  0  0
    4.8610   -0.5054    0.6539 H   0  0  0  0  0  0  0  0  0  0  0  0
  1  2  2  0  0  0  0
  1 30  1  0  0  0  0
  1 31  1  0  0  0  0
  2  3  1  0  0  0  0
  2 13  1  0  0  0  0
  3  4  1  0  0  0  0
  3 12  2  0  0  0  0
  4  5  2  0  0  0  0
  4 32  1  0  0  0  0
  5  6  1  0  0  0  0
  5 33  1  0  0  0  0
  6  7  2  0  0  0  0
  6 34  1  0  0  0  0
  7  8  1  0  0  0  0
  7 12  1  0  0  0  0
  8  9  1  0  0  0  0
  8 35  1  0  0  0  0
  9 10  1  0  0  0  0
  9 11  2  0  0  0  0
 10 36  1  0  0  0  0
 10 37  1  0  0  0  0
 10 38  1  0  0  0  0
 12 39  1  0  0  0  0
 13 14  1  0  0  0  0
 13 29  2  0  0  0  0
 14 15  2  0  0  0  0
 14 40  1  0  0  0  0
 15 16  1  0  0  0  0
 15 41  1  0  0  0  0
 16 17  1  0  0  0  0
 16 28  2  0  0  0  0
 17 18  1  0  0  0  0
 17 26  2  0  0  0  0
 18 19  2  0  0  0  0
 18 42  1  0  0  0  0
 19 20  1  0  0  0  0
 19 43  1  0  0  0  0
 20 21  1  0  0  0  0
 20 25  2  0  0  0  0
 21 22  2  0  0  0  0
 21 44  1  0  0  0  0
 22 23  1  0  0  0  0
 22 45  1  0  0  0  0
 23 24  2  0  0  0  0
 23 46  1  0  0  0  0
 24 25  1  0  0  0  0
 24 47  1  0  0  0  0
 25 48  1  0  0  0  0
 26 27  1  0  0  0  0
 27 28  1  0  0  0  0
 27 49  1  0  0  0  0
 28 29  1  0  0  0  0
 29 50  1  0  0  0  0
M  END
$$$$
