CHEMBL3397942
 OpenBabel04072215363D

 56 59  0  0  0  0  0  0  0  0999 V2000
    1.0215   -0.7900    0.6316 O   0  0  0  0  0  0  0  0  0  0  0  0
    2.1284   -0.3309    0.3768 C   0  0  0  0  0  0  0  0  0  0  0  0
    2.6653    0.8501    0.8710 N   0  0  0  0  0  0  0  0  0  0  0  0
    2.0246    1.6944    1.8020 C   0  0  0  0  0  0  0  0  0  0  0  0
    0.9546    1.2818    2.5918 C   0  0  0  0  0  0  0  0  0  0  0  0
    0.2925    2.1835    3.4284 C   0  0  0  0  0  0  0  0  0  0  0  0
    0.6810    3.5139    3.4951 C   0  0  0  0  0  0  0  0  0  0  0  0
   -0.1382    4.2464    4.3178 O   0  0  0  0  0  0  0  0  0  0  0  0
   -0.2748    5.6232    3.9901 C   0  0  0  0  0  0  0  0  0  0  0  0
   -1.6389    6.1836    4.4098 C   0  0  0  0  0  0  0  0  0  0  0  0
   -1.6972    7.5628    3.9595 N   0  0  0  0  0  0  0  0  0  0  0  0
   -0.8583    8.5392    4.6323 C   0  0  0  0  0  0  0  0  0  0  0  0
   -1.7437    9.7556    4.8126 C   0  0  0  0  0  0  0  0  0  0  0  0
   -2.7755    9.6256    3.7071 C   0  0  0  0  0  0  0  0  0  0  0  0
   -2.9635    8.1243    3.5439 C   0  0  0  0  0  0  0  0  0  0  0  0
    1.8119    3.9228    2.7652 C   0  0  0  0  0  0  0  0  0  0  0  0
    2.5255    5.4974    2.8332 Cl  0  0  0  0  0  0  0  0  0  0  0  0
    2.4747    3.0126    1.9235 C   0  0  0  0  0  0  0  0  0  0  0  0
    2.9593   -1.0658   -0.6041 C   0  0  0  0  0  0  0  0  0  0  0  0
    2.3014   -1.7690   -1.6171 C   0  0  0  0  0  0  0  0  0  0  0  0
    3.0352   -2.5252   -2.5206 C   0  0  0  0  0  0  0  0  0  0  0  0
    4.4281   -2.5708   -2.4159 C   0  0  0  0  0  0  0  0  0  0  0  0
    5.1227   -1.8449   -1.4281 C   0  0  0  0  0  0  0  0  0  0  0  0
    6.6041   -1.7923   -1.3939 C   0  0  0  0  0  0  0  0  0  0  0  0
    7.3553   -1.8489   -2.5837 C   0  0  0  0  0  0  0  0  0  0  0  0
    8.7423   -1.6729   -2.5854 C   0  0  0  0  0  0  0  0  0  0  0  0
    9.4136   -1.4176   -1.3947 C   0  0  0  0  0  0  0  0  0  0  0  0
    8.6926   -1.3760   -0.2095 C   0  0  0  0  0  0  0  0  0  0  0  0
    9.2985   -1.0917    0.9791 O   0  0  0  0  0  0  0  0  0  0  0  0
    7.3155   -1.5894   -0.1974 C   0  0  0  0  0  0  0  0  0  0  0  0
    4.3544   -1.1090   -0.5074 C   0  0  0  0  0  0  0  0  0  0  0  0
    3.4835    1.2219    0.4043 H   0  0  0  0  0  0  0  0  0  0  0  0
    0.6084    0.2500    2.5823 H   0  0  0  0  0  0  0  0  0  0  0  0
   -0.5533    1.8232    4.0122 H   0  0  0  0  0  0  0  0  0  0  0  0
   -0.1936    5.7769    2.9065 H   0  0  0  0  0  0  0  0  0  0  0  0
    0.5102    6.1700    4.5218 H   0  0  0  0  0  0  0  0  0  0  0  0
   -1.7946    6.0794    5.4929 H   0  0  0  0  0  0  0  0  0  0  0  0
   -2.4245    5.5787    3.9379 H   0  0  0  0  0  0  0  0  0  0  0  0
   -0.0204    8.7763    3.9658 H   0  0  0  0  0  0  0  0  0  0  0  0
   -0.4429    8.2080    5.5906 H   0  0  0  0  0  0  0  0  0  0  0  0
   -1.1804   10.6914    4.7467 H   0  0  0  0  0  0  0  0  0  0  0  0
   -2.2377    9.7182    5.7907 H   0  0  0  0  0  0  0  0  0  0  0  0
   -2.3819   10.0634    2.7816 H   0  0  0  0  0  0  0  0  0  0  0  0
   -3.7093   10.1364    3.9575 H   0  0  0  0  0  0  0  0  0  0  0  0
   -3.1534    7.8763    2.4934 H   0  0  0  0  0  0  0  0  0  0  0  0
   -3.8078    7.7725    4.1449 H   0  0  0  0  0  0  0  0  0  0  0  0
    3.3283    3.3482    1.3438 H   0  0  0  0  0  0  0  0  0  0  0  0
    1.2166   -1.7275   -1.6968 H   0  0  0  0  0  0  0  0  0  0  0  0
    2.5251   -3.0776   -3.3052 H   0  0  0  0  0  0  0  0  0  0  0  0
    4.9673   -3.1898   -3.1302 H   0  0  0  0  0  0  0  0  0  0  0  0
    6.8626   -1.9941   -3.5426 H   0  0  0  0  0  0  0  0  0  0  0  0
    9.2876   -1.7092   -3.5246 H   0  0  0  0  0  0  0  0  0  0  0  0
   10.4857   -1.2525   -1.4121 H   0  0  0  0  0  0  0  0  0  0  0  0
   10.2116   -0.8122    0.8003 H   0  0  0  0  0  0  0  0  0  0  0  0
    6.8066   -1.5674    0.7630 H   0  0  0  0  0  0  0  0  0  0  0  0
    4.8449   -0.5680    0.2968 H   0  0  0  0  0  0  0  0  0  0  0  0
  1  2  2  0  0  0  0
  2  3  1  0  0  0  0
  2 19  1  0  0  0  0
  3  4  1  0  0  0  0
  3 32  1  0  0  0  0
  4  5  1  0  0  0  0
  4 18  2  0  0  0  0
  5  6  2  0  0  0  0
  5 33  1  0  0  0  0
  6  7  1  0  0  0  0
  6 34  1  0  0  0  0
  7  8  1  0  0  0  0
  7 16  2  0  0  0  0
  8  9  1  0  0  0  0
  9 10  1  0  0  0  0
  9 35  1  0  0  0  0
  9 36  1  0  0  0  0
 10 11  1  0  0  0  0
 10 37  1  0  0  0  0
 10 38  1  0  0  0  0
 11 12  1  0  0  0  0
 11 15  1  0  0  0  0
 12 13  1  0  0  0  0
 12 39  1  0  0  0  0
 12 40  1  0  0  0  0
 13 14  1  0  0  0  0
 13 41  1  0  0  0  0
 13 42  1  0  0  0  0
 14 15  1  0  0  0  0
 14 43  1  0  0  0  0
 14 44  1  0  0  0  0
 15 45  1  0  0  0  0
 15 46  1  0  0  0  0
 16 17  1  0  0  0  0
 16 18  1  0  0  0  0
 18 47  1  0  0  0  0
 19 20  1  0  0  0  0
 19 31  2  0  0  0  0
 20 21  2  0  0  0  0
 20 48  1  0  0  0  0
 21 22  1  0  0  0  0
 21 49  1  0  0  0  0
 22 23  2  0  0  0  0
 22 50  1  0  0  0  0
 23 24  1  0  0  0  0
 23 31  1  0  0  0  0
 24 25  1  0  0  0  0
 24 30  2  0  0  0  0
 25 26  2  0  0  0  0
 25 51  1  0  0  0  0
 26 27  1  0  0  0  0
 26 52  1  0  0  0  0
 27 28  2  0  0  0  0
 27 53  1  0  0  0  0
 28 29  1  0  0  0  0
 28 30  1  0  0  0  0
 29 54  1  0  0  0  0
 30 55  1  0  0  0  0
 31 56  1  0  0  0  0
M  END
$$$$
