CHEMBL4515066
 OpenBabel04072215383D

 54 58  0  0  0  0  0  0  0  0999 V2000
    2.3490   12.9229   -1.1475 C   0  0  0  0  0  0  0  0  0  0  0  0
    3.6210   12.3094   -0.9817 O   0  0  0  0  0  0  0  0  0  0  0  0
    3.6600   11.1686   -0.2270 C   0  0  0  0  0  0  0  0  0  0  0  0
    2.5724   10.5510    0.3828 C   0  0  0  0  0  0  0  0  0  0  0  0
    2.7593    9.3948    1.1506 C   0  0  0  0  0  0  0  0  0  0  0  0
    4.0298    8.8323    1.2922 C   0  0  0  0  0  0  0  0  0  0  0  0
    4.1722    7.7330    2.1597 N   0  0  0  0  0  0  0  0  0  0  0  0
    5.1784    6.7986    2.2531 C   0  0  0  0  0  0  0  0  0  0  0  0
    6.0294    6.1161    0.9867 S   0  0  0  0  0  0  0  0  0  0  0  0
    5.3614    6.2941    3.5260 N   0  0  0  0  0  0  0  0  0  0  0  0
    5.1480    6.9959    4.7292 C   0  0  0  0  0  0  0  0  0  0  0  0
    4.8113    6.2961    5.8871 C   0  0  0  0  0  0  0  0  0  0  0  0
    4.5440    6.9947    7.0772 C   0  0  0  0  0  0  0  0  0  0  0  0
    4.6859    8.3886    7.1416 C   0  0  0  0  0  0  0  0  0  0  0  0
    4.3999    9.1038    8.3220 N   0  0  0  0  0  0  0  0  0  0  0  0
    5.0350   10.3003    8.7191 C   0  0  0  0  0  0  0  0  0  0  0  0
    6.2853   10.5637    8.2626 N   0  0  0  0  0  0  0  0  0  0  0  0
    6.8869   11.7089    8.5992 C   0  0  0  0  0  0  0  0  0  0  0  0
    6.3930   12.6823    9.3546 N   0  0  0  0  0  0  0  0  0  0  0  0
    5.1588   12.4063    9.8055 C   0  0  0  0  0  0  0  0  0  0  0  0
    4.3347   13.5452   10.7695 S   0  0  0  0  0  0  0  0  0  0  0  0
    2.9829   12.5303   10.9067 C   0  0  0  0  0  0  0  0  0  0  0  0
    3.1508   11.3251   10.2458 C   0  0  0  0  0  0  0  0  0  0  0  0
    4.4236   11.2503    9.5686 C   0  0  0  0  0  0  0  0  0  0  0  0
    2.0487   10.3068   10.2733 C   0  0  0  0  0  0  0  0  0  0  0  0
    1.0403   10.6182   11.4035 C   0  0  0  0  0  0  0  0  0  0  0  0
    0.6348   12.0328   11.4133 N   0  0  0  0  0  0  0  0  0  0  0  0
    1.7774   12.9173   11.7080 C   0  0  0  0  0  0  0  0  0  0  0  0
    5.0537    9.0651    5.9720 C   0  0  0  0  0  0  0  0  0  0  0  0
    5.2914    8.3805    4.7842 C   0  0  0  0  0  0  0  0  0  0  0  0
    5.1183    9.4486    0.6750 C   0  0  0  0  0  0  0  0  0  0  0  0
    4.9330   10.6112   -0.0768 C   0  0  0  0  0  0  0  0  0  0  0  0
    2.4691   13.7596   -1.8419 H   0  0  0  0  0  0  0  0  0  0  0  0
    1.9835   13.3240   -0.1961 H   0  0  0  0  0  0  0  0  0  0  0  0
    1.6242   12.2311   -1.5895 H   0  0  0  0  0  0  0  0  0  0  0  0
    1.5655   10.9433    0.2934 H   0  0  0  0  0  0  0  0  0  0  0  0
    1.8942    8.9316    1.6177 H   0  0  0  0  0  0  0  0  0  0  0  0
    3.4152    7.5949    2.8187 H   0  0  0  0  0  0  0  0  0  0  0  0
    5.8559    5.4119    3.5895 H   0  0  0  0  0  0  0  0  0  0  0  0
    4.6950    5.2162    5.8658 H   0  0  0  0  0  0  0  0  0  0  0  0
    4.2298    6.4348    7.9523 H   0  0  0  0  0  0  0  0  0  0  0  0
    4.1916    8.5240    9.1247 H   0  0  0  0  0  0  0  0  0  0  0  0
    7.8899   11.8551    8.2085 H   0  0  0  0  0  0  0  0  0  0  0  0
    2.4587    9.3045   10.4335 H   0  0  0  0  0  0  0  0  0  0  0  0
    1.5332   10.3131    9.3053 H   0  0  0  0  0  0  0  0  0  0  0  0
    1.4733   10.3546   12.3774 H   0  0  0  0  0  0  0  0  0  0  0  0
    0.1528    9.9905   11.2703 H   0  0  0  0  0  0  0  0  0  0  0  0
   -0.0798   12.1821   12.1238 H   0  0  0  0  0  0  0  0  0  0  0  0
    2.0194   12.8597   12.7762 H   0  0  0  0  0  0  0  0  0  0  0  0
    1.4826   13.9489   11.4863 H   0  0  0  0  0  0  0  0  0  0  0  0
    5.1647   10.1470    5.9707 H   0  0  0  0  0  0  0  0  0  0  0  0
    5.6264    8.9525    3.9237 H   0  0  0  0  0  0  0  0  0  0  0  0
    6.1306    9.0774    0.8089 H   0  0  0  0  0  0  0  0  0  0  0  0
    5.7921   11.0965   -0.5296 H   0  0  0  0  0  0  0  0  0  0  0  0
  1  2  1  0  0  0  0
  1 33  1  0  0  0  0
  1 34  1  0  0  0  0
  1 35  1  0  0  0  0
  2  3  1  0  0  0  0
  3  4  1  0  0  0  0
  3 32  2  0  0  0  0
  4  5  2  0  0  0  0
  4 36  1  0  0  0  0
  5  6  1  0  0  0  0
  5 37  1  0  0  0  0
  6  7  1  0  0  0  0
  6 31  2  0  0  0  0
  7  8  1  0  0  0  0
  7 38  1  0  0  0  0
  8  9  2  0  0  0  0
  8 10  1  0  0  0  0
 10 11  1  0  0  0  0
 10 39  1  0  0  0  0
 11 12  1  0  0  0  0
 11 30  2  0  0  0  0
 12 13  2  0  0  0  0
 12 40  1  0  0  0  0
 13 14  1  0  0  0  0
 13 41  1  0  0  0  0
 14 15  1  0  0  0  0
 14 29  2  0  0  0  0
 15 16  1  0  0  0  0
 15 42  1  0  0  0  0
 16 17  1  0  0  0  0
 16 24  2  0  0  0  0
 17 18  2  0  0  0  0
 18 19  1  0  0  0  0
 18 43  1  0  0  0  0
 19 20  2  0  0  0  0
 20 21  1  0  0  0  0
 20 24  1  0  0  0  0
 21 22  1  0  0  0  0
 22 23  2  0  0  0  0
 22 28  1  0  0  0  0
 23 24  1  0  0  0  0
 23 25  1  0  0  0  0
 25 26  1  0  0  0  0
 25 44  1  0  0  0  0
 25 45  1  0  0  0  0
 26 27  1  0  0  0  0
 26 46  1  0  0  0  0
 26 47  1  0  0  0  0
 27 28  1  0  0  0  0
 27 48  1  0  0  0  0
 28 49  1  0  0  0  0
 28 50  1  0  0  0  0
 29 30  1  0  0  0  0
 29 51  1  0  0  0  0
 30 52  1  0  0  0  0
 31 32  1  0  0  0  0
 31 53  1  0  0  0  0
 32 54  1  0  0  0  0
M  END
$$$$
