CHEMBL1242030
 OpenBabel04072215363D

 42 44  0  0  0  0  0  0  0  0999 V2000
    2.9302    0.0107    1.3348 C   0  0  0  0  0  0  0  0  0  0  0  0
    2.6142    0.1424   -0.1549 C   0  0  0  0  0  0  0  0  0  0  0  0
    1.1343   -0.1476   -0.4236 C   0  0  0  0  0  0  0  0  0  0  0  0
    3.0118    1.4454   -0.6787 N   0  0  0  0  0  0  0  0  0  0  0  0
    2.4546    2.5728   -0.1878 N   0  0  0  0  0  0  0  0  0  0  0  0
    3.0282    3.5705   -0.8931 C   0  0  0  0  0  0  0  0  0  0  0  0
    2.6572    4.9627   -0.6249 C   0  0  0  0  0  0  0  0  0  0  0  0
    2.3787    5.3778    0.6875 C   0  0  0  0  0  0  0  0  0  0  0  0
    2.0419    6.7078    0.9633 C   0  0  0  0  0  0  0  0  0  0  0  0
    1.9724    7.6334   -0.0738 C   0  0  0  0  0  0  0  0  0  0  0  0
    1.5437    8.9628    0.1924 N   0  0  0  0  0  0  0  0  0  0  0  0
    2.6969   10.1397    0.5462 S   0  0  0  0  0  0  0  0  0  0  0  0
    2.5989   10.1892    2.3194 C   0  0  0  0  0  0  0  0  0  0  0  0
    4.0171    9.6914    0.1514 O   0  0  0  0  0  0  0  0  0  0  0  0
    2.1432   11.3806    0.0434 O   0  0  0  0  0  0  0  0  0  0  0  0
    2.2689    7.2473   -1.3787 C   0  0  0  0  0  0  0  0  0  0  0  0
    2.5707    5.9103   -1.6546 C   0  0  0  0  0  0  0  0  0  0  0  0
    3.9883    3.0593   -1.8196 C   0  0  0  0  0  0  0  0  0  0  0  0
    4.9000    3.5372   -2.7753 C   0  0  0  0  0  0  0  0  0  0  0  0
    5.1229    4.8738   -3.0775 N   0  0  0  0  0  0  0  0  0  0  0  0
    5.6490    2.6507   -3.4617 N   0  0  0  0  0  0  0  0  0  0  0  0
    5.5043    1.3405   -3.1962 C   0  0  0  0  0  0  0  0  0  0  0  0
    4.6819    0.7663   -2.3113 N   0  0  0  0  0  0  0  0  0  0  0  0
    3.9462    1.6818   -1.6527 C   0  0  0  0  0  0  0  0  0  0  0  0
    2.6362   -0.9752    1.7090 H   0  0  0  0  0  0  0  0  0  0  0  0
    2.4039    0.7653    1.9296 H   0  0  0  0  0  0  0  0  0  0  0  0
    4.0043    0.1325    1.5158 H   0  0  0  0  0  0  0  0  0  0  0  0
    3.2019   -0.6136   -0.6902 H   0  0  0  0  0  0  0  0  0  0  0  0
    0.4846    0.5984    0.0476 H   0  0  0  0  0  0  0  0  0  0  0  0
    0.8542   -1.1307   -0.0324 H   0  0  0  0  0  0  0  0  0  0  0  0
    0.9248   -0.1414   -1.4996 H   0  0  0  0  0  0  0  0  0  0  0  0
    2.4074    4.6562    1.5020 H   0  0  0  0  0  0  0  0  0  0  0  0
    1.8001    6.9958    1.9817 H   0  0  0  0  0  0  0  0  0  0  0  0
    0.8721    9.3401   -0.4771 H   0  0  0  0  0  0  0  0  0  0  0  0
    2.9658    9.2437    2.7229 H   0  0  0  0  0  0  0  0  0  0  0  0
    1.5601   10.3639    2.6093 H   0  0  0  0  0  0  0  0  0  0  0  0
    3.2235   11.0120    2.6728 H   0  0  0  0  0  0  0  0  0  0  0  0
    2.2506    7.9671   -2.1918 H   0  0  0  0  0  0  0  0  0  0  0  0
    2.7236    5.6196   -2.6927 H   0  0  0  0  0  0  0  0  0  0  0  0
    5.0662    5.5020   -2.2863 H   0  0  0  0  0  0  0  0  0  0  0  0
    5.9584    4.9727   -3.6422 H   0  0  0  0  0  0  0  0  0  0  0  0
    6.1377    0.6689   -3.7689 H   0  0  0  0  0  0  0  0  0  0  0  0
  1  2  1  0  0  0  0
  1 25  1  0  0  0  0
  1 26  1  0  0  0  0
  1 27  1  0  0  0  0
  2  3  1  0  0  0  0
  2  4  1  0  0  0  0
  2 28  1  0  0  0  0
  3 29  1  0  0  0  0
  3 30  1  0  0  0  0
  3 31  1  0  0  0  0
  4  5  1  0  0  0  0
  4 24  1  0  0  0  0
  5  6  2  0  0  0  0
  6  7  1  0  0  0  0
  6 18  1  0  0  0  0
  7  8  1  0  0  0  0
  7 17  2  0  0  0  0
  8  9  2  0  0  0  0
  8 32  1  0  0  0  0
  9 10  1  0  0  0  0
  9 33  1  0  0  0  0
 10 11  1  0  0  0  0
 10 16  2  0  0  0  0
 11 12  1  0  0  0  0
 11 34  1  0  0  0  0
 12 13  1  0  0  0  0
 12 14  2  0  0  0  0
 12 15  2  0  0  0  0
 13 35  1  0  0  0  0
 13 36  1  0  0  0  0
 13 37  1  0  0  0  0
 16 17  1  0  0  0  0
 16 38  1  0  0  0  0
 17 39  1  0  0  0  0
 18 19  1  0  0  0  0
 18 24  2  0  0  0  0
 19 20  1  0  0  0  0
 19 21  2  0  0  0  0
 20 40  1  0  0  0  0
 20 41  1  0  0  0  0
 21 22  1  0  0  0  0
 22 23  2  0  0  0  0
 22 42  1  0  0  0  0
 23 24  1  0  0  0  0
M  END
$$$$
