CHEMBL3953771
 OpenBabel04072215373D

 63 67  0  0  0  0  0  0  0  0999 V2000
    9.3667    2.2297   -9.0752 C   0  0  0  0  0  0  0  0  0  0  0  0
    9.2589    1.6035  -10.3522 O   0  0  0  0  0  0  0  0  0  0  0  0
    7.9945    1.1061  -10.5955 C   0  0  0  0  0  0  0  0  0  0  0  0
    7.8110    0.4494  -11.7921 C   0  0  0  0  0  0  0  0  0  0  0  0
    6.5427   -0.0294  -12.0149 C   0  0  0  0  0  0  0  0  0  0  0  0
    5.5205    0.1363  -11.1518 N   0  0  0  0  0  0  0  0  0  0  0  0
    5.8248    0.8113  -10.0304 C   0  0  0  0  0  0  0  0  0  0  0  0
    4.7794    1.0640   -9.1041 C   0  0  0  0  0  0  0  0  0  0  0  0
    3.9043    1.2903   -8.3025 C   0  0  0  0  0  0  0  0  0  0  0  0
    2.8050    1.5018   -7.3539 C   0  0  0  0  0  0  0  0  0  0  0  0
    2.5837    2.9376   -6.9994 N   0  0  0  0  0  0  0  0  0  0  0  0
    2.8872    3.3307   -5.6566 C   0  0  0  0  0  0  0  0  0  0  0  0
    3.6910    2.5440   -4.8208 C   0  0  0  0  0  0  0  0  0  0  0  0
    3.9355    2.8941   -3.4947 C   0  0  0  0  0  0  0  0  0  0  0  0
    3.4484    4.0631   -2.9560 C   0  0  0  0  0  0  0  0  0  0  0  0
    3.7435    4.2986   -1.6709 N   0  0  0  0  0  0  0  0  0  0  0  0
    3.2884    5.4591   -1.1621 C   0  0  0  0  0  0  0  0  0  0  0  0
    2.5654    6.3821   -1.9040 C   0  0  0  0  0  0  0  0  0  0  0  0
    2.1235    7.6085   -1.2525 C   0  0  0  0  0  0  0  0  0  0  0  0
    1.9087    7.8597    0.1288 C   0  0  0  0  0  0  0  0  0  0  0  0
    1.5682    9.1226    0.3869 N   0  0  0  0  0  0  0  0  0  0  0  0
    1.5531    9.6958   -0.8303 N   0  0  0  0  0  0  0  0  0  0  0  0
    1.2124   11.0942   -0.9428 C   0  0  0  0  0  0  0  0  0  0  0  0
    1.8900    8.8346   -1.8424 C   0  0  0  0  0  0  0  0  0  0  0  0
    2.2541    6.1383   -3.2114 N   0  0  0  0  0  0  0  0  0  0  0  0
    2.6868    4.9513   -3.7512 C   0  0  0  0  0  0  0  0  0  0  0  0
    2.4046    4.5395   -5.0797 C   0  0  0  0  0  0  0  0  0  0  0  0
    2.2915    3.7924   -8.1305 C   0  0  0  0  0  0  0  0  0  0  0  0
    1.2643    3.4803   -9.0839 C   0  0  0  0  0  0  0  0  0  0  0  0
    0.0379    2.2967   -8.7168 Cl  0  0  0  0  0  0  0  0  0  0  0  0
    1.0809    4.2547  -10.2501 C   0  0  0  0  0  0  0  0  0  0  0  0
    0.1455    4.0496  -11.2363 O   0  0  0  0  0  0  0  0  0  0  0  0
    0.1122    2.7522  -11.8318 C   0  0  0  0  0  0  0  0  0  0  0  0
    1.7733    5.4564  -10.3926 C   0  0  0  0  0  0  0  0  0  0  0  0
    2.7045    5.8607   -9.4396 C   0  0  0  0  0  0  0  0  0  0  0  0
    3.3429    7.0767   -9.4707 O   0  0  0  0  0  0  0  0  0  0  0  0
    2.9212    8.0299  -10.4387 C   0  0  0  0  0  0  0  0  0  0  0  0
    3.0262    4.9920   -8.3694 C   0  0  0  0  0  0  0  0  0  0  0  0
    4.4381    5.4107   -7.4264 Cl  0  0  0  0  0  0  0  0  0  0  0  0
    7.0222    1.3019   -9.6944 N   0  0  0  0  0  0  0  0  0  0  0  0
   10.3871    2.6102   -8.9738 H   0  0  0  0  0  0  0  0  0  0  0  0
    9.1973    1.5069   -8.2685 H   0  0  0  0  0  0  0  0  0  0  0  0
    8.6837    3.0828   -8.9871 H   0  0  0  0  0  0  0  0  0  0  0  0
    8.6134    0.3197  -12.5032 H   0  0  0  0  0  0  0  0  0  0  0  0
    6.2992   -0.5689  -12.9277 H   0  0  0  0  0  0  0  0  0  0  0  0
    2.9626    0.8657   -6.4777 H   0  0  0  0  0  0  0  0  0  0  0  0
    1.9095    1.0418   -7.7662 H   0  0  0  0  0  0  0  0  0  0  0  0
    4.1867    1.6420   -5.1637 H   0  0  0  0  0  0  0  0  0  0  0  0
    4.5396    2.2378   -2.8718 H   0  0  0  0  0  0  0  0  0  0  0  0
    3.5412    5.6200   -0.1205 H   0  0  0  0  0  0  0  0  0  0  0  0
    1.9923    7.1765    0.9635 H   0  0  0  0  0  0  0  0  0  0  0  0
    0.9497   11.4867    0.0436 H   0  0  0  0  0  0  0  0  0  0  0  0
    0.3563   11.1881   -1.6147 H   0  0  0  0  0  0  0  0  0  0  0  0
    2.0784   11.6322   -1.3347 H   0  0  0  0  0  0  0  0  0  0  0  0
    1.9495    9.1662   -2.8695 H   0  0  0  0  0  0  0  0  0  0  0  0
    1.7904    5.2091   -5.6777 H   0  0  0  0  0  0  0  0  0  0  0  0
   -0.2084    2.8726  -12.8734 H   0  0  0  0  0  0  0  0  0  0  0  0
   -0.6476    2.1342  -11.3467 H   0  0  0  0  0  0  0  0  0  0  0  0
    1.0853    2.2495  -11.8370 H   0  0  0  0  0  0  0  0  0  0  0  0
    1.5444    6.0703  -11.2583 H   0  0  0  0  0  0  0  0  0  0  0  0
    3.3858    8.9896  -10.1915 H   0  0  0  0  0  0  0  0  0  0  0  0
    1.8360    8.1828  -10.4283 H   0  0  0  0  0  0  0  0  0  0  0  0
    3.2691    7.7318  -11.4320 H   0  0  0  0  0  0  0  0  0  0  0  0
  1  2  1  0  0  0  0
  1 41  1  0  0  0  0
  1 42  1  0  0  0  0
  1 43  1  0  0  0  0
  2  3  1  0  0  0  0
  3  4  1  0  0  0  0
  3 40  2  0  0  0  0
  4  5  2  0  0  0  0
  4 44  1  0  0  0  0
  5  6  1  0  0  0  0
  5 45  1  0  0  0  0
  6  7  2  0  0  0  0
  7  8  1  0  0  0  0
  7 40  1  0  0  0  0
  8  9  3  0  0  0  0
  9 10  1  0  0  0  0
 10 11  1  0  0  0  0
 10 46  1  0  0  0  0
 10 47  1  0  0  0  0
 11 12  1  0  0  0  0
 11 28  1  0  0  0  0
 12 13  1  0  0  0  0
 12 27  2  0  0  0  0
 13 14  2  0  0  0  0
 13 48  1  0  0  0  0
 14 15  1  0  0  0  0
 14 49  1  0  0  0  0
 15 16  1  0  0  0  0
 15 26  2  0  0  0  0
 16 17  2  0  0  0  0
 17 18  1  0  0  0  0
 17 50  1  0  0  0  0
 18 19  1  0  0  0  0
 18 25  2  0  0  0  0
 19 20  1  0  0  0  0
 19 24  2  0  0  0  0
 20 21  2  0  0  0  0
 20 51  1  0  0  0  0
 21 22  1  0  0  0  0
 22 23  1  0  0  0  0
 22 24  1  0  0  0  0
 23 52  1  0  0  0  0
 23 53  1  0  0  0  0
 23 54  1  0  0  0  0
 24 55  1  0  0  0  0
 25 26  1  0  0  0  0
 26 27  1  0  0  0  0
 27 56  1  0  0  0  0
 28 29  1  0  0  0  0
 28 38  2  0  0  0  0
 29 30  1  0  0  0  0
 29 31  2  0  0  0  0
 31 32  1  0  0  0  0
 31 34  1  0  0  0  0
 32 33  1  0  0  0  0
 33 57  1  0  0  0  0
 33 58  1  0  0  0  0
 33 59  1  0  0  0  0
 34 35  2  0  0  0  0
 34 60  1  0  0  0  0
 35 36  1  0  0  0  0
 35 38  1  0  0  0  0
 36 37  1  0  0  0  0
 37 61  1  0  0  0  0
 37 62  1  0  0  0  0
 37 63  1  0  0  0  0
 38 39  1  0  0  0  0
M  END
$$$$
