CHEMBL3310052
 OpenBabel04072215363D

 50 53  0  0  0  0  0  0  0  0999 V2000
    1.2654    0.7119    0.5556 O   0  0  0  0  0  0  0  0  0  0  0  0
    2.3479    0.2655    0.1886 C   0  0  0  0  0  0  0  0  0  0  0  0
    2.8848    0.4489   -1.0788 N   0  0  0  0  0  0  0  0  0  0  0  0
    2.2246    1.1337   -2.1313 C   0  0  0  0  0  0  0  0  0  0  0  0
    1.1421    1.9814   -1.9065 C   0  0  0  0  0  0  0  0  0  0  0  0
    0.4226    2.5269   -2.9684 C   0  0  0  0  0  0  0  0  0  0  0  0
    0.8017    2.3063   -4.2946 C   0  0  0  0  0  0  0  0  0  0  0  0
    0.0869    2.8877   -5.3734 N   0  0  0  0  0  0  0  0  0  0  0  0
   -0.6643    4.0985   -5.3107 C   0  0  0  0  0  0  0  0  0  0  0  0
   -0.1574    5.1514   -4.5237 C   0  0  0  0  0  0  0  0  0  0  0  0
   -0.8883    6.3103   -4.3394 C   0  0  0  0  0  0  0  0  0  0  0  0
   -2.0862    6.4536   -5.0358 C   0  0  0  0  0  0  0  0  0  0  0  0
   -2.9052    7.6034   -4.7139 N   0  3  0  0  0  0  0  0  0  0  0  0
   -2.3836    8.7183   -4.8420 O   0  0  0  0  0  0  0  0  0  0  0  0
   -4.0296    7.3859   -4.2415 O   0  5  0  0  0  0  0  0  0  0  0  0
   -2.5719    5.5273   -5.9546 C   0  0  0  0  0  0  0  0  0  0  0  0
   -3.6513    5.8037   -6.7152 N   0  0  0  0  0  0  0  0  0  0  0  0
   -4.1190    4.8546   -7.5263 C   0  0  0  0  0  0  0  0  0  0  0  0
   -3.6468    3.6152   -7.6087 N   0  0  0  0  0  0  0  0  0  0  0  0
   -2.5517    3.3857   -6.8638 C   0  0  0  0  0  0  0  0  0  0  0  0
   -2.1687    2.0791   -6.9204 O   0  0  0  0  0  0  0  0  0  0  0  0
   -1.8858    4.3061   -6.0426 C   0  0  0  0  0  0  0  0  0  0  0  0
    1.9179    1.4943   -4.5252 C   0  0  0  0  0  0  0  0  0  0  0  0
    2.6358    0.9257   -3.4524 C   0  0  0  0  0  0  0  0  0  0  0  0
    3.1608   -0.5035    1.0029 N   0  0  0  0  0  0  0  0  0  0  0  0
    2.8000   -0.9567    2.3038 C   0  0  0  0  0  0  0  0  0  0  0  0
    1.4691   -1.0335    2.7301 C   0  0  0  0  0  0  0  0  0  0  0  0
    1.1446   -1.4373    4.0315 C   0  0  0  0  0  0  0  0  0  0  0  0
    2.1505   -1.7930    4.9349 C   0  0  0  0  0  0  0  0  0  0  0  0
    1.8085   -2.1934    6.3503 C   0  0  0  0  0  0  0  0  0  0  0  0
    0.4808   -2.1361    6.6310 F   0  0  0  0  0  0  0  0  0  0  0  0
    2.2034   -3.4677    6.6369 F   0  0  0  0  0  0  0  0  0  0  0  0
    2.4207   -1.3979    7.2734 F   0  0  0  0  0  0  0  0  0  0  0  0
    3.4831   -1.7603    4.5041 C   0  0  0  0  0  0  0  0  0  0  0  0
    3.8048   -1.3515    3.2008 C   0  0  0  0  0  0  0  0  0  0  0  0
    5.4726   -1.3054    2.7480 Cl  0  0  0  0  0  0  0  0  0  0  0  0
    3.6565   -0.1488   -1.3365 H   0  0  0  0  0  0  0  0  0  0  0  0
    0.8097    2.2432   -0.9074 H   0  0  0  0  0  0  0  0  0  0  0  0
   -0.4486    3.1283   -2.7261 H   0  0  0  0  0  0  0  0  0  0  0  0
   -0.3523    2.1778   -5.9639 H   0  0  0  0  0  0  0  0  0  0  0  0
    0.7964    5.0440   -4.0134 H   0  0  0  0  0  0  0  0  0  0  0  0
   -0.5309    7.0765   -3.6519 H   0  0  0  0  0  0  0  0  0  0  0  0
   -4.9596    5.1183   -8.1582 H   0  0  0  0  0  0  0  0  0  0  0  0
   -2.9383    1.7089   -7.3964 H   0  0  0  0  0  0  0  0  0  0  0  0
    2.2551    1.3132   -5.5430 H   0  0  0  0  0  0  0  0  0  0  0  0
    3.4993    0.3043   -3.6745 H   0  0  0  0  0  0  0  0  0  0  0  0
    4.1495   -0.5156    0.7892 H   0  0  0  0  0  0  0  0  0  0  0  0
    0.6408   -0.7832    2.0705 H   0  0  0  0  0  0  0  0  0  0  0  0
    0.0980   -1.4581    4.3257 H   0  0  0  0  0  0  0  0  0  0  0  0
    4.2799   -2.0378    5.1938 H   0  0  0  0  0  0  0  0  0  0  0  0
  1  2  2  0  0  0  0
  2  3  1  0  0  0  0
  2 25  1  0  0  0  0
  3  4  1  0  0  0  0
  3 37  1  0  0  0  0
  4  5  1  0  0  0  0
  4 24  2  0  0  0  0
  5  6  2  0  0  0  0
  5 38  1  0  0  0  0
  6  7  1  0  0  0  0
  6 39  1  0  0  0  0
  7  8  1  0  0  0  0
  7 23  2  0  0  0  0
  8  9  1  0  0  0  0
  8 40  1  0  0  0  0
  9 10  1  0  0  0  0
  9 22  2  0  0  0  0
 10 11  2  0  0  0  0
 10 41  1  0  0  0  0
 11 12  1  0  0  0  0
 11 42  1  0  0  0  0
 12 13  1  0  0  0  0
 12 16  2  0  0  0  0
 13 14  2  0  0  0  0
 13 15  1  0  0  0  0
 16 17  1  0  0  0  0
 16 22  1  0  0  0  0
 17 18  2  0  0  0  0
 18 19  1  0  0  0  0
 18 43  1  0  0  0  0
 19 20  2  0  0  0  0
 20 21  1  0  0  0  0
 20 22  1  0  0  0  0
 21 44  1  0  0  0  0
 23 24  1  0  0  0  0
 23 45  1  0  0  0  0
 24 46  1  0  0  0  0
 25 26  1  0  0  0  0
 25 47  1  0  0  0  0
 26 27  1  0  0  0  0
 26 35  2  0  0  0  0
 27 28  2  0  0  0  0
 27 48  1  0  0  0  0
 28 29  1  0  0  0  0
 28 49  1  0  0  0  0
 29 30  1  0  0  0  0
 29 34  2  0  0  0  0
 30 31  1  0  0  0  0
 30 32  1  0  0  0  0
 30 33  1  0  0  0  0
 34 35  1  0  0  0  0
 34 50  1  0  0  0  0
 35 36  1  0  0  0  0
M  CHG  2  13   1  15  -1
M  END
$$$$
