CHEMBL1242468
 OpenBabel04072215363D

 37 39  0  0  1  0  0  0  0  0999 V2000
    3.1685    1.2403    0.6125 C   0  0  0  0  0  0  0  0  0  0  0  0
    2.5867    0.0156   -0.1048 C   0  0  1  0  0  0  0  0  0  0  0  0
    1.0470   -0.0156   -0.0542 C   0  0  0  0  0  0  0  0  0  0  0  0
    0.5107   -0.0575    1.3123 N   0  0  0  0  0  0  0  0  0  0  0  0
    3.0487   -0.0855   -1.4894 N   0  0  0  0  0  0  0  0  0  0  0  0
    3.3061    1.0191   -2.2179 N   0  0  0  0  0  0  0  0  0  0  0  0
    3.8162    0.5524   -3.3736 C   0  0  0  0  0  0  0  0  0  0  0  0
    4.3060    1.5027   -4.3770 C   0  0  0  0  0  0  0  0  0  0  0  0
    3.6567    2.7386   -4.5590 C   0  0  0  0  0  0  0  0  0  0  0  0
    4.1135    3.6550   -5.5125 C   0  0  0  0  0  0  0  0  0  0  0  0
    5.2131    3.3293   -6.2936 C   0  0  0  0  0  0  0  0  0  0  0  0
    5.6527    4.1866   -7.2251 F   0  0  0  0  0  0  0  0  0  0  0  0
    5.8707    2.1178   -6.1154 C   0  0  0  0  0  0  0  0  0  0  0  0
    6.9449    1.7757   -6.8856 O   0  0  0  0  0  0  0  0  0  0  0  0
    5.4432    1.2190   -5.1465 C   0  0  0  0  0  0  0  0  0  0  0  0
    3.7691   -0.8781   -3.4170 C   0  0  0  0  0  0  0  0  0  0  0  0
    4.0757   -1.9291   -4.2997 C   0  0  0  0  0  0  0  0  0  0  0  0
    4.5929   -1.7900   -5.5772 N   0  0  0  0  0  0  0  0  0  0  0  0
    3.8516   -3.1982   -3.8981 N   0  0  0  0  0  0  0  0  0  0  0  0
    3.3455   -3.4107   -2.6703 C   0  0  0  0  0  0  0  0  0  0  0  0
    3.0165   -2.4966   -1.7456 N   0  0  0  0  0  0  0  0  0  0  0  0
    3.2570   -1.2473   -2.1831 C   0  0  0  0  0  0  0  0  0  0  0  0
    2.8873    1.2526    1.6700 H   0  0  0  0  0  0  0  0  0  0  0  0
    2.8166    2.1761    0.1628 H   0  0  0  0  0  0  0  0  0  0  0  0
    4.2632    1.2368    0.5616 H   0  0  0  0  0  0  0  0  0  0  0  0
    2.9739   -0.8762    0.4045 H   0  0  0  0  0  0  0  0  0  0  0  0
    0.6688   -0.8910   -0.5957 H   0  0  0  0  0  0  0  0  0  0  0  0
    0.6400    0.8679   -0.5604 H   0  0  0  0  0  0  0  0  0  0  0  0
    0.7776   -0.9342    1.7608 H   0  0  0  0  0  0  0  0  0  0  0  0
   -0.5087   -0.0601    1.2738 H   0  0  0  0  0  0  0  0  0  0  0  0
    2.7931    2.9965   -3.9473 H   0  0  0  0  0  0  0  0  0  0  0  0
    3.6190    4.6118   -5.6447 H   0  0  0  0  0  0  0  0  0  0  0  0
    7.1028    2.5158   -7.5005 H   0  0  0  0  0  0  0  0  0  0  0  0
    6.0099    0.3044   -4.9955 H   0  0  0  0  0  0  0  0  0  0  0  0
    4.3317   -0.9561   -6.0848 H   0  0  0  0  0  0  0  0  0  0  0  0
    4.5407   -2.6606   -6.0936 H   0  0  0  0  0  0  0  0  0  0  0  0
    3.1807   -4.4491   -2.3995 H   0  0  0  0  0  0  0  0  0  0  0  0
  1  2  1  0  0  0  0
  1 23  1  0  0  0  0
  1 24  1  0  0  0  0
  1 25  1  0  0  0  0
  2  3  1  0  0  0  0
  2  5  1  0  0  0  0
  2 26  1  1  0  0  0
  3  4  1  0  0  0  0
  3 27  1  0  0  0  0
  3 28  1  0  0  0  0
  4 29  1  0  0  0  0
  4 30  1  0  0  0  0
  5  6  1  0  0  0  0
  5 22  1  0  0  0  0
  6  7  2  0  0  0  0
  7  8  1  0  0  0  0
  7 16  1  0  0  0  0
  8  9  1  0  0  0  0
  8 15  2  0  0  0  0
  9 10  2  0  0  0  0
  9 31  1  0  0  0  0
 10 11  1  0  0  0  0
 10 32  1  0  0  0  0
 11 12  1  0  0  0  0
 11 13  2  0  0  0  0
 13 14  1  0  0  0  0
 13 15  1  0  0  0  0
 14 33  1  0  0  0  0
 15 34  1  0  0  0  0
 16 17  1  0  0  0  0
 16 22  2  0  0  0  0
 17 18  1  0  0  0  0
 17 19  2  0  0  0  0
 18 35  1  0  0  0  0
 18 36  1  0  0  0  0
 19 20  1  0  0  0  0
 20 21  2  0  0  0  0
 20 37  1  0  0  0  0
 21 22  1  0  0  0  0
M  END
$$$$
