CHEMBL437322
 OpenBabel04072215383D

 21 22  0  0  0  0  0  0  0  0999 V2000
    4.5578    4.1681    1.2514 N   0  0  0  0  0  0  0  0  0  0  0  0
    4.9178    3.1401    0.8394 C   0  0  0  0  0  0  0  0  0  0  0  0
    5.3341    1.8760    0.3474 C   0  0  0  0  0  0  0  0  0  0  0  0
    4.7290    1.1755   -0.6629 C   0  0  0  0  0  0  0  0  0  0  0  0
    5.2849   -0.0598   -0.9309 N   0  0  0  0  0  0  0  0  0  0  0  0
    6.2722   -0.3222   -0.0988 C   0  0  0  0  0  0  0  0  0  0  0  0
    6.9762   -1.4724   -0.0307 N   0  0  0  0  0  0  0  0  0  0  0  0
    7.1868   -2.3824   -1.0707 C   0  0  0  0  0  0  0  0  0  0  0  0
    6.3409   -2.5061   -2.1535 C   0  0  0  0  0  0  0  0  0  0  0  0
    6.6677   -3.4233   -3.1252 C   0  0  0  0  0  0  0  0  0  0  0  0
    5.7973   -3.6421   -4.1927 N   0  0  0  0  0  0  0  0  0  0  0  0
    7.7568   -4.1885   -3.0504 N   0  0  0  0  0  0  0  0  0  0  0  0
    8.5171   -4.0095   -1.9618 C   0  0  0  0  0  0  0  0  0  0  0  0
    8.2882   -3.1444   -0.9601 N   0  0  0  0  0  0  0  0  0  0  0  0
    6.6520    0.9816    0.9703 S   0  0  0  0  0  0  0  0  0  0  0  0
    3.8648    1.4977   -1.2384 H   0  0  0  0  0  0  0  0  0  0  0  0
    7.6964   -1.5761    0.6749 H   0  0  0  0  0  0  0  0  0  0  0  0
    5.4315   -1.9316   -2.2491 H   0  0  0  0  0  0  0  0  0  0  0  0
    5.4754   -2.7834   -4.6224 H   0  0  0  0  0  0  0  0  0  0  0  0
    6.2385   -4.2788   -4.8479 H   0  0  0  0  0  0  0  0  0  0  0  0
    9.4046   -4.6278   -1.8802 H   0  0  0  0  0  0  0  0  0  0  0  0
  1  2  3  0  0  0  0
  2  3  1  0  0  0  0
  3  4  2  0  0  0  0
  3 15  1  0  0  0  0
  4  5  1  0  0  0  0
  4 16  1  0  0  0  0
  5  6  2  0  0  0  0
  6  7  1  0  0  0  0
  6 15  1  0  0  0  0
  7  8  1  0  0  0  0
  7 17  1  0  0  0  0
  8  9  1  0  0  0  0
  8 14  2  0  0  0  0
  9 10  2  0  0  0  0
  9 18  1  0  0  0  0
 10 11  1  0  0  0  0
 10 12  1  0  0  0  0
 11 19  1  0  0  0  0
 11 20  1  0  0  0  0
 12 13  2  0  0  0  0
 13 14  1  0  0  0  0
 13 21  1  0  0  0  0
M  END
$$$$
