CHEMBL424910
 OpenBabel04072215383D

 66 72  0  0  0  0  0  0  0  0999 V2000
    3.7067   -0.2520   -3.0441 C   0  0  0  0  0  0  0  0  0  0  0  0
    3.1798    0.6747   -1.9597 C   0  0  0  0  0  0  0  0  0  0  0  0
    3.6714    0.3219   -0.5423 C   0  0  0  0  0  0  0  0  0  0  0  0
    5.1122    0.4487   -0.3367 N   0  0  0  0  0  0  0  0  0  0  0  0
    5.8037    1.6727   -0.4588 C   0  0  0  0  0  0  0  0  0  0  0  0
    5.3436    2.9861   -0.6419 C   0  0  0  0  0  0  0  0  0  0  0  0
    6.2876    4.0064   -0.8574 C   0  0  0  0  0  0  0  0  0  0  0  0
    7.6625    3.7685   -0.8395 C   0  0  0  0  0  0  0  0  0  0  0  0
    8.6539    4.7686   -1.0116 N   0  0  0  0  0  0  0  0  0  0  0  0
    8.4288    6.1030   -1.2937 C   0  0  0  0  0  0  0  0  0  0  0  0
    7.3189    6.5855   -1.4911 O   0  0  0  0  0  0  0  0  0  0  0  0
    9.5989    6.8487   -1.3349 N   0  0  0  0  0  0  0  0  0  0  0  0
    9.6135    8.2610   -1.5057 C   0  0  0  0  0  0  0  0  0  0  0  0
    8.5187    9.0720   -1.1897 C   0  0  0  0  0  0  0  0  0  0  0  0
    8.5284   10.4403   -1.4779 C   0  0  0  0  0  0  0  0  0  0  0  0
    9.6525   11.0243   -2.0530 C   0  0  0  0  0  0  0  0  0  0  0  0
   10.7791   10.2497   -2.3117 C   0  0  0  0  0  0  0  0  0  0  0  0
   10.7575    8.8774   -2.0211 C   0  0  0  0  0  0  0  0  0  0  0  0
   11.8501    8.1438   -2.2876 F   0  0  0  0  0  0  0  0  0  0  0  0
    8.1060    2.4568   -0.6510 C   0  0  0  0  0  0  0  0  0  0  0  0
    7.1781    1.4035   -0.4988 C   0  0  0  0  0  0  0  0  0  0  0  0
    7.1969    0.0198   -0.4899 C   0  0  0  0  0  0  0  0  0  0  0  0
    8.2775   -0.7177   -0.9949 C   0  0  0  0  0  0  0  0  0  0  0  0
    7.9700   -2.0208   -1.4407 C   0  0  0  0  0  0  0  0  0  0  0  0
    6.7113   -2.6250   -1.2762 C   0  0  0  0  0  0  0  0  0  0  0  0
    5.9353   -2.0266   -0.2288 C   0  0  0  0  0  0  0  0  0  0  0  0
    6.0153   -0.6126   -0.2195 C   0  0  0  0  0  0  0  0  0  0  0  0
    5.9743   -2.9101    1.0963 C   0  0  0  0  0  0  0  0  0  0  0  0
    7.0276   -4.0990    1.0614 C   0  0  0  0  0  0  0  0  0  0  0  0
    6.7899   -4.8313   -0.2121 C   0  0  0  0  0  0  0  0  0  0  0  0
    6.4017   -6.0963   -0.3670 N   0  0  0  0  0  0  0  0  0  0  0  0
    5.9037   -6.0962   -1.6302 N   0  0  0  0  0  0  0  0  0  0  0  0
    5.2491   -7.2761   -2.1415 C   0  0  0  0  0  0  0  0  0  0  0  0
    5.8881   -4.8519   -2.2149 C   0  0  0  0  0  0  0  0  0  0  0  0
    6.6254   -4.0602   -1.3735 C   0  0  0  0  0  0  0  0  0  0  0  0
    9.1946   -2.6119   -1.8980 C   0  0  0  0  0  0  0  0  0  0  0  0
    9.5085   -3.7295   -2.2908 O   0  0  0  0  0  0  0  0  0  0  0  0
   10.1554   -1.6090   -1.7334 N   0  0  0  0  0  0  0  0  0  0  0  0
    9.6702   -0.3515   -1.2120 C   0  0  0  0  0  0  0  0  0  0  0  0
    3.2936    0.0368   -4.0168 H   0  0  0  0  0  0  0  0  0  0  0  0
    3.4169   -1.2880   -2.8482 H   0  0  0  0  0  0  0  0  0  0  0  0
    4.7967   -0.1995   -3.1196 H   0  0  0  0  0  0  0  0  0  0  0  0
    2.0833    0.6359   -1.9710 H   0  0  0  0  0  0  0  0  0  0  0  0
    3.4459    1.7031   -2.2266 H   0  0  0  0  0  0  0  0  0  0  0  0
    3.3737   -0.6991   -0.2830 H   0  0  0  0  0  0  0  0  0  0  0  0
    3.1968    0.9938    0.1824 H   0  0  0  0  0  0  0  0  0  0  0  0
    4.2868    3.2263   -0.6794 H   0  0  0  0  0  0  0  0  0  0  0  0
    5.8886    4.9998   -1.0400 H   0  0  0  0  0  0  0  0  0  0  0  0
    9.6158    4.4814   -0.9054 H   0  0  0  0  0  0  0  0  0  0  0  0
   10.4593    6.3695   -1.5716 H   0  0  0  0  0  0  0  0  0  0  0  0
    7.6288    8.6630   -0.7201 H   0  0  0  0  0  0  0  0  0  0  0  0
    7.6443   11.0347   -1.2627 H   0  0  0  0  0  0  0  0  0  0  0  0
    9.6436   12.0830   -2.3002 H   0  0  0  0  0  0  0  0  0  0  0  0
   11.6692   10.6947   -2.7381 H   0  0  0  0  0  0  0  0  0  0  0  0
    9.1670    2.2416   -0.6472 H   0  0  0  0  0  0  0  0  0  0  0  0
    4.9775   -3.3441    1.2346 H   0  0  0  0  0  0  0  0  0  0  0  0
    6.2044   -2.2734    1.9576 H   0  0  0  0  0  0  0  0  0  0  0  0
    6.9543   -4.7525    1.9342 H   0  0  0  0  0  0  0  0  0  0  0  0
    8.0498   -3.6886    1.0466 H   0  0  0  0  0  0  0  0  0  0  0  0
    5.4896   -8.1315   -1.5053 H   0  0  0  0  0  0  0  0  0  0  0  0
    5.6023   -7.4566   -3.1595 H   0  0  0  0  0  0  0  0  0  0  0  0
    4.1709   -7.0956   -2.1360 H   0  0  0  0  0  0  0  0  0  0  0  0
    5.3260   -4.6501   -3.1157 H   0  0  0  0  0  0  0  0  0  0  0  0
   11.1272   -1.8292   -1.8778 H   0  0  0  0  0  0  0  0  0  0  0  0
    9.7972    0.4168   -1.9762 H   0  0  0  0  0  0  0  0  0  0  0  0
   10.1846   -0.1072   -0.2794 H   0  0  0  0  0  0  0  0  0  0  0  0
  1  2  1  0  0  0  0
  1 40  1  0  0  0  0
  1 41  1  0  0  0  0
  1 42  1  0  0  0  0
  2  3  1  0  0  0  0
  2 43  1  0  0  0  0
  2 44  1  0  0  0  0
  3  4  1  0  0  0  0
  3 45  1  0  0  0  0
  3 46  1  0  0  0  0
  4  5  1  0  0  0  0
  4 27  1  0  0  0  0
  5  6  1  0  0  0  0
  5 21  2  0  0  0  0
  6  7  2  0  0  0  0
  6 47  1  0  0  0  0
  7  8  1  0  0  0  0
  7 48  1  0  0  0  0
  8  9  1  0  0  0  0
  8 20  2  0  0  0  0
  9 10  1  0  0  0  0
  9 49  1  0  0  0  0
 10 11  2  0  0  0  0
 10 12  1  0  0  0  0
 12 13  1  0  0  0  0
 12 50  1  0  0  0  0
 13 14  1  0  0  0  0
 13 18  2  0  0  0  0
 14 15  2  0  0  0  0
 14 51  1  0  0  0  0
 15 16  1  0  0  0  0
 15 52  1  0  0  0  0
 16 17  2  0  0  0  0
 16 53  1  0  0  0  0
 17 18  1  0  0  0  0
 17 54  1  0  0  0  0
 18 19  1  0  0  0  0
 20 21  1  0  0  0  0
 20 55  1  0  0  0  0
 21 22  1  0  0  0  0
 22 23  1  0  0  0  0
 22 27  2  0  0  0  0
 23 24  2  0  0  0  0
 23 39  1  0  0  0  0
 24 25  1  0  0  0  0
 24 36  1  0  0  0  0
 25 26  2  0  0  0  0
 25 35  1  0  0  0  0
 26 27  1  0  0  0  0
 26 28  1  0  0  0  0
 28 29  1  0  0  0  0
 28 56  1  0  0  0  0
 28 57  1  0  0  0  0
 29 30  1  0  0  0  0
 29 58  1  0  0  0  0
 29 59  1  0  0  0  0
 30 31  2  0  0  0  0
 30 35  1  0  0  0  0
 31 32  1  0  0  0  0
 32 33  1  0  0  0  0
 32 34  1  0  0  0  0
 33 60  1  0  0  0  0
 33 61  1  0  0  0  0
 33 62  1  0  0  0  0
 34 35  2  0  0  0  0
 34 63  1  0  0  0  0
 36 37  2  0  0  0  0
 36 38  1  0  0  0  0
 38 39  1  0  0  0  0
 38 64  1  0  0  0  0
 39 65  1  0  0  0  0
 39 66  1  0  0  0  0
M  END
$$$$
