CHEMBL1172957
 OpenBabel04072215363D

 43 46  0  0  0  0  0  0  0  0999 V2000
    4.2947    0.2697    1.2247 N   0  0  0  0  0  0  0  0  0  0  0  0
    5.7218    1.1021    0.9109 S   0  0  0  0  0  0  0  0  0  0  0  0
    5.8663    2.0841    1.9575 O   0  0  0  0  0  0  0  0  0  0  0  0
    6.7080    0.0721    0.6610 O   0  0  0  0  0  0  0  0  0  0  0  0
    5.3371    1.9232   -0.6027 C   0  0  0  0  0  0  0  0  0  0  0  0
    4.2849    2.8345   -0.6357 C   0  0  0  0  0  0  0  0  0  0  0  0
    3.9639    3.4565   -1.8427 C   0  0  0  0  0  0  0  0  0  0  0  0
    4.6936    3.1907   -3.0153 C   0  0  0  0  0  0  0  0  0  0  0  0
    4.3726    3.8049   -4.2440 N   0  0  0  0  0  0  0  0  0  0  0  0
    3.8061    5.0901   -4.3636 C   0  0  0  0  0  0  0  0  0  0  0  0
    4.0999    6.0510   -3.4472 N   0  0  0  0  0  0  0  0  0  0  0  0
    3.5180    7.2666   -3.4774 C   0  0  0  0  0  0  0  0  0  0  0  0
    3.8856    8.1704   -2.5176 N   0  0  0  0  0  0  0  0  0  0  0  0
    4.9905    7.9062   -1.5954 C   0  0  0  0  0  0  0  0  0  0  0  0
    4.4825    7.9072   -0.1467 C   0  0  0  0  0  0  0  0  0  0  0  0
    3.7493    9.1082    0.1558 O   0  0  0  0  0  0  0  0  0  0  0  0
    2.6128    9.2292   -0.7160 C   0  0  0  0  0  0  0  0  0  0  0  0
    3.0342    9.3077   -2.1917 C   0  0  0  0  0  0  0  0  0  0  0  0
    2.6049    7.6374   -4.3917 N   0  0  0  0  0  0  0  0  0  0  0  0
    2.3790    6.7011   -5.3154 C   0  0  0  0  0  0  0  0  0  0  0  0
    1.5372    6.7969   -6.3839 N   0  0  0  0  0  0  0  0  0  0  0  0
    1.6186    5.6186   -7.0760 C   0  0  0  0  0  0  0  0  0  0  0  0
    2.4324    4.7608   -6.4934 N   0  0  0  0  0  0  0  0  0  0  0  0
    2.9227    5.4357   -5.3969 C   0  0  0  0  0  0  0  0  0  0  0  0
    5.7288    2.2510   -2.9679 C   0  0  0  0  0  0  0  0  0  0  0  0
    6.0629    1.6257   -1.7614 C   0  0  0  0  0  0  0  0  0  0  0  0
    4.0304    0.4090    2.1999 H   0  0  0  0  0  0  0  0  0  0  0  0
    4.3909   -0.7097    0.9583 H   0  0  0  0  0  0  0  0  0  0  0  0
    3.7108    3.0622    0.2584 H   0  0  0  0  0  0  0  0  0  0  0  0
    3.1343    4.1582   -1.8627 H   0  0  0  0  0  0  0  0  0  0  0  0
    3.9498    3.1656   -4.9113 H   0  0  0  0  0  0  0  0  0  0  0  0
    5.7206    8.7156   -1.7161 H   0  0  0  0  0  0  0  0  0  0  0  0
    5.5253    6.9704   -1.7920 H   0  0  0  0  0  0  0  0  0  0  0  0
    5.3311    7.8579    0.5435 H   0  0  0  0  0  0  0  0  0  0  0  0
    3.8409    7.0404    0.0492 H   0  0  0  0  0  0  0  0  0  0  0  0
    2.0753   10.1405   -0.4361 H   0  0  0  0  0  0  0  0  0  0  0  0
    1.9421    8.3788   -0.5418 H   0  0  0  0  0  0  0  0  0  0  0  0
    3.6121   10.2237   -2.3590 H   0  0  0  0  0  0  0  0  0  0  0  0
    2.1319    9.3729   -2.8097 H   0  0  0  0  0  0  0  0  0  0  0  0
    0.9708    7.6017   -6.6067 H   0  0  0  0  0  0  0  0  0  0  0  0
    1.0600    5.4495   -7.9882 H   0  0  0  0  0  0  0  0  0  0  0  0
    6.3055    2.0295   -3.8607 H   0  0  0  0  0  0  0  0  0  0  0  0
    6.8846    0.9143   -1.7364 H   0  0  0  0  0  0  0  0  0  0  0  0
  1  2  1  0  0  0  0
  1 27  1  0  0  0  0
  1 28  1  0  0  0  0
  2  3  2  0  0  0  0
  2  4  2  0  0  0  0
  2  5  1  0  0  0  0
  5  6  1  0  0  0  0
  5 26  2  0  0  0  0
  6  7  2  0  0  0  0
  6 29  1  0  0  0  0
  7  8  1  0  0  0  0
  7 30  1  0  0  0  0
  8  9  1  0  0  0  0
  8 25  2  0  0  0  0
  9 10  1  0  0  0  0
  9 31  1  0  0  0  0
 10 11  1  0  0  0  0
 10 24  2  0  0  0  0
 11 12  2  0  0  0  0
 12 13  1  0  0  0  0
 12 19  1  0  0  0  0
 13 14  1  0  0  0  0
 13 18  1  0  0  0  0
 14 15  1  0  0  0  0
 14 32  1  0  0  0  0
 14 33  1  0  0  0  0
 15 16  1  0  0  0  0
 15 34  1  0  0  0  0
 15 35  1  0  0  0  0
 16 17  1  0  0  0  0
 17 18  1  0  0  0  0
 17 36  1  0  0  0  0
 17 37  1  0  0  0  0
 18 38  1  0  0  0  0
 18 39  1  0  0  0  0
 19 20  2  0  0  0  0
 20 21  1  0  0  0  0
 20 24  1  0  0  0  0
 21 22  1  0  0  0  0
 21 40  1  0  0  0  0
 22 23  2  0  0  0  0
 22 41  1  0  0  0  0
 23 24  1  0  0  0  0
 25 26  1  0  0  0  0
 25 42  1  0  0  0  0
 26 43  1  0  0  0  0
M  END
$$$$
