CHEMBL244289
 OpenBabel04072215363D

 53 56  0  0  0  0  0  0  0  0999 V2000
    6.8574   -0.9677    2.7508 C   0  0  0  0  0  0  0  0  0  0  0  0
    6.3904   -0.0245    1.7812 O   0  0  0  0  0  0  0  0  0  0  0  0
    7.0190   -0.1341    0.5749 C   0  0  0  0  0  0  0  0  0  0  0  0
    7.8899   -0.9572    0.3471 O   0  0  0  0  0  0  0  0  0  0  0  0
    6.4969    0.8091   -0.2627 N   0  0  0  0  0  0  0  0  0  0  0  0
    6.8798    0.9211   -1.5736 C   0  0  0  0  0  0  0  0  0  0  0  0
    7.7497    0.1939   -2.2381 N   0  0  0  0  0  0  0  0  0  0  0  0
    7.7317    0.6541   -3.5320 C   0  0  0  0  0  0  0  0  0  0  0  0
    8.4456    0.2117   -4.6596 C   0  0  0  0  0  0  0  0  0  0  0  0
    8.2208    0.8439   -5.8905 C   0  0  0  0  0  0  0  0  0  0  0  0
    8.9313    0.3533   -6.9774 O   0  0  0  0  0  0  0  0  0  0  0  0
    9.2995    1.2257   -7.9864 C   0  0  0  0  0  0  0  0  0  0  0  0
    9.6486    2.5541   -7.7299 C   0  0  0  0  0  0  0  0  0  0  0  0
    9.8760    3.4226   -8.7868 C   0  0  0  0  0  0  0  0  0  0  0  0
    9.8727    2.9409  -10.0879 C   0  0  0  0  0  0  0  0  0  0  0  0
    9.7018    1.5772  -10.3589 C   0  0  0  0  0  0  0  0  0  0  0  0
    9.8732    1.0665  -11.6762 N   0  0  0  0  0  0  0  0  0  0  0  0
   10.6418    1.7080  -12.6368 C   0  0  0  0  0  0  0  0  0  0  0  0
   11.3087    2.7193  -12.4365 O   0  0  0  0  0  0  0  0  0  0  0  0
   10.5735    1.1052  -13.8872 N   0  0  0  0  0  0  0  0  0  0  0  0
   11.3144    1.6897  -14.9561 C   0  0  0  0  0  0  0  0  0  0  0  0
   12.6633    2.0389  -14.7964 C   0  0  0  0  0  0  0  0  0  0  0  0
   13.3457    2.7635  -15.7876 C   0  0  0  0  0  0  0  0  0  0  0  0
   14.7867    3.1764  -15.5926 C   0  0  0  0  0  0  0  0  0  0  0  0
   15.3390    2.7230  -14.4342 F   0  0  0  0  0  0  0  0  0  0  0  0
   15.5902    2.7136  -16.5913 F   0  0  0  0  0  0  0  0  0  0  0  0
   14.9465    4.5281  -15.5844 F   0  0  0  0  0  0  0  0  0  0  0  0
   12.6551    3.1270  -16.9553 C   0  0  0  0  0  0  0  0  0  0  0  0
   11.3245    2.7396  -17.1408 C   0  0  0  0  0  0  0  0  0  0  0  0
   10.6710    2.0064  -16.1522 C   0  0  0  0  0  0  0  0  0  0  0  0
    9.3811    1.6800  -16.3234 F   0  0  0  0  0  0  0  0  0  0  0  0
    9.3641    0.7229   -9.2992 C   0  0  0  0  0  0  0  0  0  0  0  0
    7.2778    1.8804   -5.9853 C   0  0  0  0  0  0  0  0  0  0  0  0
    6.5975    2.3685   -4.8614 C   0  0  0  0  0  0  0  0  0  0  0  0
    6.8411    1.7135   -3.6560 C   0  0  0  0  0  0  0  0  0  0  0  0
    6.3298    1.8773   -2.3933 N   0  0  0  0  0  0  0  0  0  0  0  0
    6.1955   -0.9157    3.6212 H   0  0  0  0  0  0  0  0  0  0  0  0
    7.8699   -0.7037    3.0678 H   0  0  0  0  0  0  0  0  0  0  0  0
    6.8253   -1.9890    2.3612 H   0  0  0  0  0  0  0  0  0  0  0  0
    5.7863    1.4042    0.1292 H   0  0  0  0  0  0  0  0  0  0  0  0
    9.1498   -0.6082   -4.5636 H   0  0  0  0  0  0  0  0  0  0  0  0
    9.7032    2.9366   -6.7141 H   0  0  0  0  0  0  0  0  0  0  0  0
   10.0690    4.4764   -8.5974 H   0  0  0  0  0  0  0  0  0  0  0  0
   10.0236    3.6643  -10.8840 H   0  0  0  0  0  0  0  0  0  0  0  0
    9.7265    0.0725  -11.8125 H   0  0  0  0  0  0  0  0  0  0  0  0
    9.6461    0.7821  -14.1369 H   0  0  0  0  0  0  0  0  0  0  0  0
   13.1815    1.7784  -13.8733 H   0  0  0  0  0  0  0  0  0  0  0  0
   13.1534    3.7235  -17.7191 H   0  0  0  0  0  0  0  0  0  0  0  0
   10.7859    3.0344  -18.0365 H   0  0  0  0  0  0  0  0  0  0  0  0
    9.1732   -0.3309   -9.4704 H   0  0  0  0  0  0  0  0  0  0  0  0
    7.0681    2.3444   -6.9468 H   0  0  0  0  0  0  0  0  0  0  0  0
    5.9054    3.1991   -4.9415 H   0  0  0  0  0  0  0  0  0  0  0  0
    5.6400    2.5583   -2.1233 H   0  0  0  0  0  0  0  0  0  0  0  0
  1  2  1  0  0  0  0
  1 37  1  0  0  0  0
  1 38  1  0  0  0  0
  1 39  1  0  0  0  0
  2  3  1  0  0  0  0
  3  4  2  0  0  0  0
  3  5  1  0  0  0  0
  5  6  1  0  0  0  0
  5 40  1  0  0  0  0
  6  7  2  0  0  0  0
  6 36  1  0  0  0  0
  7  8  1  0  0  0  0
  8  9  1  0  0  0  0
  8 35  2  0  0  0  0
  9 10  2  0  0  0  0
  9 41  1  0  0  0  0
 10 11  1  0  0  0  0
 10 33  1  0  0  0  0
 11 12  1  0  0  0  0
 12 13  1  0  0  0  0
 12 32  2  0  0  0  0
 13 14  2  0  0  0  0
 13 42  1  0  0  0  0
 14 15  1  0  0  0  0
 14 43  1  0  0  0  0
 15 16  2  0  0  0  0
 15 44  1  0  0  0  0
 16 17  1  0  0  0  0
 16 32  1  0  0  0  0
 17 18  1  0  0  0  0
 17 45  1  0  0  0  0
 18 19  2  0  0  0  0
 18 20  1  0  0  0  0
 20 21  1  0  0  0  0
 20 46  1  0  0  0  0
 21 22  1  0  0  0  0
 21 30  2  0  0  0  0
 22 23  2  0  0  0  0
 22 47  1  0  0  0  0
 23 24  1  0  0  0  0
 23 28  1  0  0  0  0
 24 25  1  0  0  0  0
 24 26  1  0  0  0  0
 24 27  1  0  0  0  0
 28 29  2  0  0  0  0
 28 48  1  0  0  0  0
 29 30  1  0  0  0  0
 29 49  1  0  0  0  0
 30 31  1  0  0  0  0
 32 50  1  0  0  0  0
 33 34  2  0  0  0  0
 33 51  1  0  0  0  0
 34 35  1  0  0  0  0
 34 52  1  0  0  0  0
 35 36  1  0  0  0  0
 36 53  1  0  0  0  0
M  END
$$$$
