CHEMBL3590222
 OpenBabel04072215363D

 61 65  0  0  0  0  0  0  0  0999 V2000
    2.1587   -4.7143   -5.3435 C   0  0  0  0  0  0  0  0  0  0  0  0
    3.5444   -4.5258   -5.7743 N   0  0  0  0  0  0  0  0  0  0  0  0
    3.6749   -4.7676   -7.2094 C   0  0  0  0  0  0  0  0  0  0  0  0
    4.0330   -3.1660   -5.4404 C   0  0  0  0  0  0  0  0  0  0  0  0
    4.0251   -2.9097   -3.9244 C   0  0  0  0  0  0  0  0  0  0  0  0
    3.3324   -1.9951   -3.4674 O   0  0  0  0  0  0  0  0  0  0  0  0
    4.8212   -3.7117   -3.1117 N   0  0  0  0  0  0  0  0  0  0  0  0
    4.6609   -3.6289   -1.6629 C   0  0  0  0  0  0  0  0  0  0  0  0
    6.0135   -3.6435   -0.9540 C   0  0  0  0  0  0  0  0  0  0  0  0
    6.9054   -4.8108   -1.4110 C   0  0  0  0  0  0  0  0  0  0  0  0
    6.4658   -6.1383   -0.8732 C   0  0  0  0  0  0  0  0  0  0  0  0
    5.3874   -6.2938   -0.0488 N   0  0  0  0  0  0  0  0  0  0  0  0
    5.3669   -7.5888    0.2279 C   0  0  0  0  0  0  0  0  0  0  0  0
    4.4229   -8.2365    1.1210 C   0  0  0  0  0  0  0  0  0  0  0  0
    3.1388   -7.7507    1.2953 C   0  0  0  0  0  0  0  0  0  0  0  0
    2.2558   -8.3083    2.1606 N   0  0  0  0  0  0  0  0  0  0  0  0
    2.6903   -9.3650    2.8832 C   0  0  0  0  0  0  0  0  0  0  0  0
    1.7930   -9.7796    3.8543 N   0  0  0  0  0  0  0  0  0  0  0  0
    3.9954   -9.8615    2.7127 C   0  0  0  0  0  0  0  0  0  0  0  0
    4.4306  -11.0213    3.4181 N   0  0  0  0  0  0  0  0  0  0  0  0
    3.5726  -11.8125    4.1225 N   0  0  0  0  0  0  0  0  0  0  0  0
    4.2287  -12.8785    4.5519 N   0  0  0  0  0  0  0  0  0  0  0  0
    5.5216  -12.7757    4.1329 C   0  0  0  0  0  0  0  0  0  0  0  0
    6.6027  -13.6499    4.3187 C   0  0  0  0  0  0  0  0  0  0  0  0
    7.8473  -13.3055    3.7800 C   0  0  0  0  0  0  0  0  0  0  0  0
    8.0151  -12.1095    3.0826 C   0  0  0  0  0  0  0  0  0  0  0  0
    6.9472  -11.2250    2.8939 C   0  0  0  0  0  0  0  0  0  0  0  0
    5.6991  -11.5943    3.4198 C   0  0  0  0  0  0  0  0  0  0  0  0
    4.8723   -9.3003    1.8219 N   0  0  0  0  0  0  0  0  0  0  0  0
    6.3819   -8.1865   -0.4777 N   0  0  0  0  0  0  0  0  0  0  0  0
    6.7093   -9.5786   -0.6450 C   0  0  0  0  0  0  0  0  0  0  0  0
    7.1011   -7.2764   -1.1670 N   0  0  0  0  0  0  0  0  0  0  0  0
    7.0027   -4.8153   -2.9424 C   0  0  0  0  0  0  0  0  0  0  0  0
    5.6255   -4.8345   -3.5916 C   0  0  0  0  0  0  0  0  0  0  0  0
    1.8265   -5.7323   -5.5750 H   0  0  0  0  0  0  0  0  0  0  0  0
    1.4749   -4.0068   -5.8244 H   0  0  0  0  0  0  0  0  0  0  0  0
    2.0631   -4.6077   -4.2575 H   0  0  0  0  0  0  0  0  0  0  0  0
    3.3442   -5.7817   -7.4603 H   0  0  0  0  0  0  0  0  0  0  0  0
    4.7250   -4.6981   -7.5153 H   0  0  0  0  0  0  0  0  0  0  0  0
    3.0928   -4.0559   -7.8048 H   0  0  0  0  0  0  0  0  0  0  0  0
    3.4142   -2.3987   -5.9233 H   0  0  0  0  0  0  0  0  0  0  0  0
    5.0610   -3.0158   -5.7935 H   0  0  0  0  0  0  0  0  0  0  0  0
    4.0392   -4.4784   -1.3571 H   0  0  0  0  0  0  0  0  0  0  0  0
    4.1136   -2.7246   -1.3776 H   0  0  0  0  0  0  0  0  0  0  0  0
    5.8641   -3.6628    0.1321 H   0  0  0  0  0  0  0  0  0  0  0  0
    6.5310   -2.7027   -1.1835 H   0  0  0  0  0  0  0  0  0  0  0  0
    7.9125   -4.6317   -1.0112 H   0  0  0  0  0  0  0  0  0  0  0  0
    2.7767   -6.8886    0.7440 H   0  0  0  0  0  0  0  0  0  0  0  0
    0.8896   -9.3429    3.7003 H   0  0  0  0  0  0  0  0  0  0  0  0
    1.7557  -10.7889    3.9847 H   0  0  0  0  0  0  0  0  0  0  0  0
    6.4690  -14.5750    4.8696 H   0  0  0  0  0  0  0  0  0  0  0  0
    8.6934  -13.9759    3.9139 H   0  0  0  0  0  0  0  0  0  0  0  0
    8.9951  -11.8564    2.6815 H   0  0  0  0  0  0  0  0  0  0  0  0
    7.0969  -10.2897    2.3653 H   0  0  0  0  0  0  0  0  0  0  0  0
    6.0367  -10.2203   -0.0791 H   0  0  0  0  0  0  0  0  0  0  0  0
    7.7396   -9.7319   -0.3133 H   0  0  0  0  0  0  0  0  0  0  0  0
    6.6161   -9.8244   -1.7067 H   0  0  0  0  0  0  0  0  0  0  0  0
    7.5920   -5.6654   -3.3058 H   0  0  0  0  0  0  0  0  0  0  0  0
    7.5279   -3.9068   -3.2656 H   0  0  0  0  0  0  0  0  0  0  0  0
    5.0818   -5.7588   -3.3623 H   0  0  0  0  0  0  0  0  0  0  0  0
    5.7715   -4.7989   -4.6715 H   0  0  0  0  0  0  0  0  0  0  0  0
  1  2  1  0  0  0  0
  1 35  1  0  0  0  0
  1 36  1  0  0  0  0
  1 37  1  0  0  0  0
  2  3  1  0  0  0  0
  2  4  1  0  0  0  0
  3 38  1  0  0  0  0
  3 39  1  0  0  0  0
  3 40  1  0  0  0  0
  4  5  1  0  0  0  0
  4 41  1  0  0  0  0
  4 42  1  0  0  0  0
  5  6  2  0  0  0  0
  5  7  1  0  0  0  0
  7  8  1  0  0  0  0
  7 34  1  0  0  0  0
  8  9  1  0  0  0  0
  8 43  1  0  0  0  0
  8 44  1  0  0  0  0
  9 10  1  0  0  0  0
  9 45  1  0  0  0  0
  9 46  1  0  0  0  0
 10 11  1  0  0  0  0
 10 33  1  0  0  0  0
 10 47  1  0  0  0  0
 11 12  1  0  0  0  0
 11 32  2  0  0  0  0
 12 13  2  0  0  0  0
 13 14  1  0  0  0  0
 13 30  1  0  0  0  0
 14 15  1  0  0  0  0
 14 29  2  0  0  0  0
 15 16  2  0  0  0  0
 15 48  1  0  0  0  0
 16 17  1  0  0  0  0
 17 18  1  0  0  0  0
 17 19  2  0  0  0  0
 18 49  1  0  0  0  0
 18 50  1  0  0  0  0
 19 20  1  0  0  0  0
 19 29  1  0  0  0  0
 20 21  1  0  0  0  0
 20 28  1  0  0  0  0
 21 22  2  0  0  0  0
 22 23  1  0  0  0  0
 23 24  1  0  0  0  0
 23 28  2  0  0  0  0
 24 25  2  0  0  0  0
 24 51  1  0  0  0  0
 25 26  1  0  0  0  0
 25 52  1  0  0  0  0
 26 27  2  0  0  0  0
 26 53  1  0  0  0  0
 27 28  1  0  0  0  0
 27 54  1  0  0  0  0
 30 31  1  0  0  0  0
 30 32  1  0  0  0  0
 31 55  1  0  0  0  0
 31 56  1  0  0  0  0
 31 57  1  0  0  0  0
 33 34  1  0  0  0  0
 33 58  1  0  0  0  0
 33 59  1  0  0  0  0
 34 60  1  0  0  0  0
 34 61  1  0  0  0  0
M  END
$$$$
