CHEMBL3219509
 OpenBabel04072215363D

 40 42  0  0  0  0  0  0  0  0999 V2000
    3.1130   -0.2670   -1.2509 C   0  0  0  0  0  0  0  0  0  0  0  0
    2.5345   -0.1340    0.0017 O   0  0  0  0  0  0  0  0  0  0  0  0
    3.1217    0.3900    1.1094 C   0  0  0  0  0  0  0  0  0  0  0  0
    4.1913    1.3047    0.9972 C   0  0  0  0  0  0  0  0  0  0  0  0
    4.8379    1.7999    2.1292 C   0  0  0  0  0  0  0  0  0  0  0  0
    5.8955    2.6391    1.9803 N   0  0  0  0  0  0  0  0  0  0  0  0
    6.5816    3.0942    3.0557 C   0  0  0  0  0  0  0  0  0  0  0  0
    6.2155    2.7157    4.3042 N   0  0  0  0  0  0  0  0  0  0  0  0
    5.1502    1.8980    4.5261 C   0  0  0  0  0  0  0  0  0  0  0  0
    4.7917    1.5763    5.8696 N   0  0  0  0  0  0  0  0  0  0  0  0
    5.7344    1.4647    6.9374 C   0  0  0  0  0  0  0  0  0  0  0  0
    7.0935    1.1835    6.6967 C   0  0  0  0  0  0  0  0  0  0  0  0
    7.9768    1.0018    7.7602 C   0  0  0  0  0  0  0  0  0  0  0  0
    7.5263    1.1113    9.0746 C   0  0  0  0  0  0  0  0  0  0  0  0
    6.1821    1.4143    9.3394 C   0  0  0  0  0  0  0  0  0  0  0  0
    5.6977    1.5652   10.8361 B   0  0  0  0  0  0  0  0  0  0  0  0
    4.3896    2.1481   11.1487 O   0  0  0  0  0  0  0  0  0  0  0  0
    6.6094    1.2324   11.9327 O   0  0  0  0  0  0  0  0  0  0  0  0
    5.2905    1.5789    8.2658 C   0  0  0  0  0  0  0  0  0  0  0  0
    4.4183    1.4111    3.4162 C   0  0  0  0  0  0  0  0  0  0  0  0
    3.3345    0.5219    3.5369 C   0  0  0  0  0  0  0  0  0  0  0  0
    2.6846   -0.0017    2.4102 C   0  0  0  0  0  0  0  0  0  0  0  0
    1.6876   -0.8979    2.6592 O   0  0  0  0  0  0  0  0  0  0  0  0
    0.8652   -1.5442    1.7602 C   0  0  0  0  0  0  0  0  0  0  0  0
    2.9751   -1.3107   -1.5995 H   0  0  0  0  0  0  0  0  0  0  0  0
    4.2084   -0.0867   -1.2435 H   0  0  0  0  0  0  0  0  0  0  0  0
    2.6256    0.4219   -1.9701 H   0  0  0  0  0  0  0  0  0  0  0  0
    4.5434    1.6344    0.0294 H   0  0  0  0  0  0  0  0  0  0  0  0
    7.4238    3.7581    2.9184 H   0  0  0  0  0  0  0  0  0  0  0  0
    3.7994    1.4119    6.0948 H   0  0  0  0  0  0  0  0  0  0  0  0
    7.4728    1.0611    5.6926 H   0  0  0  0  0  0  0  0  0  0  0  0
    9.0151    0.7673    7.5653 H   0  0  0  0  0  0  0  0  0  0  0  0
    8.2359    0.9670    9.8798 H   0  0  0  0  0  0  0  0  0  0  0  0
    3.7202    1.6173   10.6506 H   0  0  0  0  0  0  0  0  0  0  0  0
    7.3003    1.9422   11.9234 H   0  0  0  0  0  0  0  0  0  0  0  0
    4.2433    1.7948    8.4449 H   0  0  0  0  0  0  0  0  0  0  0  0
    2.9928    0.1888    4.5046 H   0  0  0  0  0  0  0  0  0  0  0  0
    0.2479   -2.2754    2.3232 H   0  0  0  0  0  0  0  0  0  0  0  0
    1.4585   -2.1142    1.0149 H   0  0  0  0  0  0  0  0  0  0  0  0
    0.1877   -0.8177    1.2671 H   0  0  0  0  0  0  0  0  0  0  0  0
  1  2  1  0  0  0  0
  1 25  1  0  0  0  0
  1 26  1  0  0  0  0
  1 27  1  0  0  0  0
  2  3  1  0  0  0  0
  3  4  1  0  0  0  0
  3 22  2  0  0  0  0
  4  5  2  0  0  0  0
  4 28  1  0  0  0  0
  5  6  1  0  0  0  0
  5 20  1  0  0  0  0
  6  7  2  0  0  0  0
  7  8  1  0  0  0  0
  7 29  1  0  0  0  0
  8  9  2  0  0  0  0
  9 10  1  0  0  0  0
  9 20  1  0  0  0  0
 10 11  1  0  0  0  0
 10 30  1  0  0  0  0
 11 12  1  0  0  0  0
 11 19  2  0  0  0  0
 12 13  2  0  0  0  0
 12 31  1  0  0  0  0
 13 14  1  0  0  0  0
 13 32  1  0  0  0  0
 14 15  2  0  0  0  0
 14 33  1  0  0  0  0
 15 16  1  0  0  0  0
 15 19  1  0  0  0  0
 16 17  1  0  0  0  0
 16 18  1  0  0  0  0
 17 34  1  0  0  0  0
 18 35  1  0  0  0  0
 19 36  1  0  0  0  0
 20 21  2  0  0  0  0
 21 22  1  0  0  0  0
 21 37  1  0  0  0  0
 22 23  1  0  0  0  0
 23 24  1  0  0  0  0
 24 38  1  0  0  0  0
 24 39  1  0  0  0  0
 24 40  1  0  0  0  0
M  END
$$$$
