CHEMBL260306
 OpenBabel04072215363D

 88 94  0  0  0  0  0  0  0  0999 V2000
    1.5889   -0.7324   -0.9547 C   0  0  0  0  0  0  0  0  0  0  0  0
    2.1912   -0.1473    0.1995 O   0  0  0  0  0  0  0  0  0  0  0  0
    2.9597   -1.0022    0.9513 C   0  0  0  0  0  0  0  0  0  0  0  0
    2.5728   -2.3340    1.1427 C   0  0  0  0  0  0  0  0  0  0  0  0
    3.3885   -3.2502    1.8159 C   0  0  0  0  0  0  0  0  0  0  0  0
    2.8653   -4.5479    2.0238 N   0  0  0  0  0  0  0  0  0  0  0  0
    3.5159   -5.6578    2.5774 C   0  0  0  0  0  0  0  0  0  0  0  0
    2.9387   -6.0006    3.7436 N   0  0  0  0  0  0  0  0  0  0  0  0
    3.4174   -7.0733    4.3674 C   0  0  0  0  0  0  0  0  0  0  0  0
    4.4440   -7.8130    3.8452 C   0  0  0  0  0  0  0  0  0  0  0  0
    4.7019   -9.0943    4.4857 C   0  0  0  0  0  0  0  0  0  0  0  0
    4.8758   -9.0955    5.6981 O   0  0  0  0  0  0  0  0  0  0  0  0
    4.6441  -10.1705    3.6275 N   0  0  0  0  0  0  0  0  0  0  0  0
    5.4373  -11.3343    3.8672 C   0  0  0  0  0  0  0  0  0  0  0  0
    4.8807  -12.5937    3.5485 C   0  0  0  0  0  0  0  0  0  0  0  0
    3.4537  -12.7551    3.0902 C   0  0  0  0  0  0  0  0  0  0  0  0
    5.6660  -13.7364    3.6802 C   0  0  0  0  0  0  0  0  0  0  0  0
    6.9745  -13.6582    4.1360 C   0  0  0  0  0  0  0  0  0  0  0  0
    7.5270  -12.4377    4.4646 C   0  0  0  0  0  0  0  0  0  0  0  0
    6.7859  -11.2501    4.3247 C   0  0  0  0  0  0  0  0  0  0  0  0
    7.5380   -9.9813    4.6699 C   0  0  0  0  0  0  0  0  0  0  0  0
    4.4238   -9.8488    2.2677 C   0  0  0  0  0  0  0  0  0  0  0  0
    4.1757  -10.6046    1.2282 N   0  0  0  0  0  0  0  0  0  0  0  0
    5.4155  -10.6120    0.6847 C   0  0  0  0  0  0  0  0  0  0  0  0
    5.9943  -11.7682    0.1434 C   0  0  0  0  0  0  0  0  0  0  0  0
    7.3530  -11.9354    0.3558 C   0  0  0  0  0  0  0  0  0  0  0  0
    8.1139  -10.8814    0.8789 C   0  0  0  0  0  0  0  0  0  0  0  0
    7.5641   -9.6020    1.1988 C   0  0  0  0  0  0  0  0  0  0  0  0
    6.1569   -9.4933    1.1477 C   0  0  0  0  0  0  0  0  0  0  0  0
    5.1216   -8.7392    1.7855 N   0  0  0  0  0  0  0  0  0  0  0  0
    4.9174   -7.5306    2.5609 C   0  0  0  0  0  0  0  0  0  0  0  0
    4.4791   -6.3987    1.9361 N   0  0  0  0  0  0  0  0  0  0  0  0
    4.5937   -2.8014    2.3500 C   0  0  0  0  0  0  0  0  0  0  0  0
    4.9889   -1.4589    2.2062 C   0  0  0  0  0  0  0  0  0  0  0  0
    6.1899   -0.9702    2.6662 O   0  0  0  0  0  0  0  0  0  0  0  0
    7.1190   -1.9041    3.2039 C   0  0  0  0  0  0  0  0  0  0  0  0
    4.1327   -0.5292    1.5677 C   0  0  0  0  0  0  0  0  0  0  0  0
    4.5365    0.7956    1.5957 O   0  0  0  0  0  0  0  0  0  0  0  0
    3.4758    1.7656    1.6347 C   0  0  0  0  0  0  0  0  0  0  0  0
    3.9007    3.0169    2.4115 C   0  0  0  0  0  0  0  0  0  0  0  0
    2.7705    4.0681    2.4896 C   0  0  0  0  0  0  0  0  0  0  0  0
    1.5207    3.5845    3.0959 N   0  0  0  0  0  0  0  0  0  0  0  0
    1.6830    3.1505    4.4938 C   0  0  0  0  0  0  0  0  0  0  0  0
    0.3628    2.5593    5.0345 C   0  0  0  0  0  0  0  0  0  0  0  0
   -0.7776    3.4943    5.0177 N   0  0  0  0  0  0  0  0  0  0  0  0
   -0.6522    4.5094    6.0594 C   0  0  0  0  0  0  0  0  0  0  0  0
   -0.8906    4.0929    3.6702 C   0  0  0  0  0  0  0  0  0  0  0  0
    0.4380    4.5909    3.0302 C   0  0  0  0  0  0  0  0  0  0  0  0
    1.1524    0.0731   -1.5524 H   0  0  0  0  0  0  0  0  0  0  0  0
    0.7706   -1.4056   -0.6813 H   0  0  0  0  0  0  0  0  0  0  0  0
    2.3305   -1.2503   -1.5735 H   0  0  0  0  0  0  0  0  0  0  0  0
    1.6069   -2.6801    0.7862 H   0  0  0  0  0  0  0  0  0  0  0  0
    2.1104   -4.4241    2.7096 H   0  0  0  0  0  0  0  0  0  0  0  0
    2.8703   -7.4055    5.2471 H   0  0  0  0  0  0  0  0  0  0  0  0
    2.8934  -11.8124    3.0322 H   0  0  0  0  0  0  0  0  0  0  0  0
    2.9107  -13.3727    3.8073 H   0  0  0  0  0  0  0  0  0  0  0  0
    3.4277  -13.2115    2.0994 H   0  0  0  0  0  0  0  0  0  0  0  0
    5.2460  -14.7138    3.4236 H   0  0  0  0  0  0  0  0  0  0  0  0
    7.5665  -14.5827    4.2333 H   0  0  0  0  0  0  0  0  0  0  0  0
    8.5707  -12.4151    4.8140 H   0  0  0  0  0  0  0  0  0  0  0  0
    8.6251  -10.1356    4.6540 H   0  0  0  0  0  0  0  0  0  0  0  0
    7.2842   -9.6377    5.6743 H   0  0  0  0  0  0  0  0  0  0  0  0
    7.3503   -9.1795    3.9536 H   0  0  0  0  0  0  0  0  0  0  0  0
    5.3608  -12.6095   -0.1236 H   0  0  0  0  0  0  0  0  0  0  0  0
    7.7825  -12.9274    0.2122 H   0  0  0  0  0  0  0  0  0  0  0  0
    9.1546  -11.1066    1.1247 H   0  0  0  0  0  0  0  0  0  0  0  0
    8.1999   -8.8731    1.6902 H   0  0  0  0  0  0  0  0  0  0  0  0
    5.2008   -3.5044    2.9079 H   0  0  0  0  0  0  0  0  0  0  0  0
    8.0990   -1.4200    3.2491 H   0  0  0  0  0  0  0  0  0  0  0  0
    7.2354   -2.7970    2.5791 H   0  0  0  0  0  0  0  0  0  0  0  0
    6.8253   -2.1748    4.2229 H   0  0  0  0  0  0  0  0  0  0  0  0
    2.5873    1.3496    2.1211 H   0  0  0  0  0  0  0  0  0  0  0  0
    3.2439    2.0584    0.6048 H   0  0  0  0  0  0  0  0  0  0  0  0
    4.7765    3.4673    1.9272 H   0  0  0  0  0  0  0  0  0  0  0  0
    4.2467    2.7373    3.4137 H   0  0  0  0  0  0  0  0  0  0  0  0
    2.5552    4.3889    1.4615 H   0  0  0  0  0  0  0  0  0  0  0  0
    3.1385    4.9533    3.0237 H   0  0  0  0  0  0  0  0  0  0  0  0
    2.0161    3.9859    5.1232 H   0  0  0  0  0  0  0  0  0  0  0  0
    2.4403    2.3652    4.5724 H   0  0  0  0  0  0  0  0  0  0  0  0
    0.5198    2.1685    6.0469 H   0  0  0  0  0  0  0  0  0  0  0  0
    0.0957    1.6863    4.4229 H   0  0  0  0  0  0  0  0  0  0  0  0
   -0.5079    4.0381    7.0389 H   0  0  0  0  0  0  0  0  0  0  0  0
   -1.5775    5.0912    6.1322 H   0  0  0  0  0  0  0  0  0  0  0  0
    0.1764    5.2042    5.8916 H   0  0  0  0  0  0  0  0  0  0  0  0
   -1.6229    4.9107    3.6818 H   0  0  0  0  0  0  0  0  0  0  0  0
   -1.3195    3.3277    3.0093 H   0  0  0  0  0  0  0  0  0  0  0  0
    0.7481    5.5192    3.5272 H   0  0  0  0  0  0  0  0  0  0  0  0
    0.2310    4.8381    1.9816 H   0  0  0  0  0  0  0  0  0  0  0  0
  1  2  1  0  0  0  0
  1 49  1  0  0  0  0
  1 50  1  0  0  0  0
  1 51  1  0  0  0  0
  2  3  1  0  0  0  0
  3  4  1  0  0  0  0
  3 37  2  0  0  0  0
  4  5  2  0  0  0  0
  4 52  1  0  0  0  0
  5  6  1  0  0  0  0
  5 33  1  0  0  0  0
  6  7  1  0  0  0  0
  6 53  1  0  0  0  0
  7  8  1  0  0  0  0
  7 32  2  0  0  0  0
  8  9  2  0  0  0  0
  9 10  1  0  0  0  0
  9 54  1  0  0  0  0
 10 11  1  0  0  0  0
 10 31  2  0  0  0  0
 11 12  2  0  0  0  0
 11 13  1  0  0  0  0
 13 14  1  0  0  0  0
 13 22  1  0  0  0  0
 14 15  1  0  0  0  0
 14 20  2  0  0  0  0
 15 16  1  0  0  0  0
 15 17  2  0  0  0  0
 16 55  1  0  0  0  0
 16 56  1  0  0  0  0
 16 57  1  0  0  0  0
 17 18  1  0  0  0  0
 17 58  1  0  0  0  0
 18 19  2  0  0  0  0
 18 59  1  0  0  0  0
 19 20  1  0  0  0  0
 19 60  1  0  0  0  0
 20 21  1  0  0  0  0
 21 61  1  0  0  0  0
 21 62  1  0  0  0  0
 21 63  1  0  0  0  0
 22 23  2  0  0  0  0
 22 30  1  0  0  0  0
 23 24  1  0  0  0  0
 24 25  1  0  0  0  0
 24 29  2  0  0  0  0
 25 26  2  0  0  0  0
 25 64  1  0  0  0  0
 26 27  1  0  0  0  0
 26 65  1  0  0  0  0
 27 28  2  0  0  0  0
 27 66  1  0  0  0  0
 28 29  1  0  0  0  0
 28 67  1  0  0  0  0
 29 30  1  0  0  0  0
 30 31  1  0  0  0  0
 31 32  1  0  0  0  0
 33 34  2  0  0  0  0
 33 68  1  0  0  0  0
 34 35  1  0  0  0  0
 34 37  1  0  0  0  0
 35 36  1  0  0  0  0
 36 69  1  0  0  0  0
 36 70  1  0  0  0  0
 36 71  1  0  0  0  0
 37 38  1  0  0  0  0
 38 39  1  0  0  0  0
 39 40  1  0  0  0  0
 39 72  1  0  0  0  0
 39 73  1  0  0  0  0
 40 41  1  0  0  0  0
 40 74  1  0  0  0  0
 40 75  1  0  0  0  0
 41 42  1  0  0  0  0
 41 76  1  0  0  0  0
 41 77  1  0  0  0  0
 42 43  1  0  0  0  0
 42 48  1  0  0  0  0
 43 44  1  0  0  0  0
 43 78  1  0  0  0  0
 43 79  1  0  0  0  0
 44 45  1  0  0  0  0
 44 80  1  0  0  0  0
 44 81  1  0  0  0  0
 45 46  1  0  0  0  0
 45 47  1  0  0  0  0
 46 82  1  0  0  0  0
 46 83  1  0  0  0  0
 46 84  1  0  0  0  0
 47 48  1  0  0  0  0
 47 85  1  0  0  0  0
 47 86  1  0  0  0  0
 48 87  1  0  0  0  0
 48 88  1  0  0  0  0
M  END
$$$$
