CHEMBL3758922
 OpenBabel04072215373D

 50 52  0  0  0  0  0  0  0  0999 V2000
    2.9479    0.0732    1.4953 C   0  0  0  0  0  0  0  0  0  0  0  0
    2.5732   -0.0675    0.1304 O   0  0  0  0  0  0  0  0  0  0  0  0
    3.2104   -0.9805   -0.6590 C   0  0  0  0  0  0  0  0  0  0  0  0
    4.4066   -1.6124   -0.3036 C   0  0  0  0  0  0  0  0  0  0  0  0
    5.0051   -2.5760   -1.0992 C   0  0  0  0  0  0  0  0  0  0  0  0
    6.1345   -3.1317   -0.6539 N   0  0  0  0  0  0  0  0  0  0  0  0
    6.7224   -4.0190   -1.4535 C   0  0  0  0  0  0  0  0  0  0  0  0
    6.2965   -4.3678   -2.6661 N   0  0  0  0  0  0  0  0  0  0  0  0
    5.1620   -3.7912   -3.1145 C   0  0  0  0  0  0  0  0  0  0  0  0
    4.7829   -4.0373   -4.4594 N   0  0  0  0  0  0  0  0  0  0  0  0
    5.6950   -4.4812   -5.4450 C   0  0  0  0  0  0  0  0  0  0  0  0
    6.9803   -3.9227   -5.5341 C   0  0  0  0  0  0  0  0  0  0  0  0
    7.9210   -4.4222   -6.4348 C   0  0  0  0  0  0  0  0  0  0  0  0
    7.5794   -5.4749   -7.2802 C   0  0  0  0  0  0  0  0  0  0  0  0
    6.2888   -6.0040   -7.2452 C   0  0  0  0  0  0  0  0  0  0  0  0
    5.3569   -5.4993   -6.3397 C   0  0  0  0  0  0  0  0  0  0  0  0
    4.1239   -6.0285   -6.3068 F   0  0  0  0  0  0  0  0  0  0  0  0
    4.4203   -2.8996   -2.3288 C   0  0  0  0  0  0  0  0  0  0  0  0
    3.2077   -2.2759   -2.7042 C   0  0  0  0  0  0  0  0  0  0  0  0
    2.6251   -1.3005   -1.8916 C   0  0  0  0  0  0  0  0  0  0  0  0
    1.4569   -0.7777   -2.3845 O   0  0  0  0  0  0  0  0  0  0  0  0
    1.3760    0.6508   -2.3545 C   0  0  0  0  0  0  0  0  0  0  0  0
    0.2150    1.1081   -3.2455 C   0  0  0  0  0  0  0  0  0  0  0  0
   -1.1066    0.4728   -2.8051 C   0  0  0  0  0  0  0  0  0  0  0  0
   -2.3126    1.0259   -3.5603 C   0  0  0  0  0  0  0  0  0  0  0  0
   -3.5936    0.3494   -3.1120 C   0  0  0  0  0  0  0  0  0  0  0  0
   -3.6639   -0.5018   -2.2289 O   0  0  0  0  0  0  0  0  0  0  0  0
   -4.7116    0.7727   -3.7924 N   0  0  0  0  0  0  0  0  0  0  0  0
   -5.9364    0.2431   -3.3184 O   0  0  0  0  0  0  0  0  0  0  0  0
    3.5222    0.9965    1.6177 H   0  0  0  0  0  0  0  0  0  0  0  0
    3.5000   -0.7704    1.9160 H   0  0  0  0  0  0  0  0  0  0  0  0
    2.0276    0.1625    2.0797 H   0  0  0  0  0  0  0  0  0  0  0  0
    4.9298   -1.3596    0.6125 H   0  0  0  0  0  0  0  0  0  0  0  0
    7.6291   -4.4903   -1.0955 H   0  0  0  0  0  0  0  0  0  0  0  0
    3.8819   -4.5042   -4.5143 H   0  0  0  0  0  0  0  0  0  0  0  0
    7.2644   -3.1064   -4.8731 H   0  0  0  0  0  0  0  0  0  0  0  0
    8.9214   -3.9982   -6.4564 H   0  0  0  0  0  0  0  0  0  0  0  0
    8.3214   -5.8831   -7.9610 H   0  0  0  0  0  0  0  0  0  0  0  0
    6.0091   -6.8192   -7.9038 H   0  0  0  0  0  0  0  0  0  0  0  0
    2.7252   -2.5313   -3.6445 H   0  0  0  0  0  0  0  0  0  0  0  0
    2.3097    1.0979   -2.7174 H   0  0  0  0  0  0  0  0  0  0  0  0
    1.1709    1.0039   -1.3403 H   0  0  0  0  0  0  0  0  0  0  0  0
    0.4171    0.8298   -4.2867 H   0  0  0  0  0  0  0  0  0  0  0  0
    0.1425    2.2013   -3.2023 H   0  0  0  0  0  0  0  0  0  0  0  0
   -1.2491    0.6357   -1.7295 H   0  0  0  0  0  0  0  0  0  0  0  0
   -1.0572   -0.6129   -2.9550 H   0  0  0  0  0  0  0  0  0  0  0  0
   -2.1928    0.8666   -4.6380 H   0  0  0  0  0  0  0  0  0  0  0  0
   -2.4096    2.1024   -3.3778 H   0  0  0  0  0  0  0  0  0  0  0  0
   -4.7609    1.6646   -4.2716 H   0  0  0  0  0  0  0  0  0  0  0  0
   -5.6378   -0.3723   -2.6111 H   0  0  0  0  0  0  0  0  0  0  0  0
  1  2  1  0  0  0  0
  1 30  1  0  0  0  0
  1 31  1  0  0  0  0
  1 32  1  0  0  0  0
  2  3  1  0  0  0  0
  3  4  1  0  0  0  0
  3 20  2  0  0  0  0
  4  5  2  0  0  0  0
  4 33  1  0  0  0  0
  5  6  1  0  0  0  0
  5 18  1  0  0  0  0
  6  7  2  0  0  0  0
  7  8  1  0  0  0  0
  7 34  1  0  0  0  0
  8  9  2  0  0  0  0
  9 10  1  0  0  0  0
  9 18  1  0  0  0  0
 10 11  1  0  0  0  0
 10 35  1  0  0  0  0
 11 12  1  0  0  0  0
 11 16  2  0  0  0  0
 12 13  2  0  0  0  0
 12 36  1  0  0  0  0
 13 14  1  0  0  0  0
 13 37  1  0  0  0  0
 14 15  2  0  0  0  0
 14 38  1  0  0  0  0
 15 16  1  0  0  0  0
 15 39  1  0  0  0  0
 16 17  1  0  0  0  0
 18 19  2  0  0  0  0
 19 20  1  0  0  0  0
 19 40  1  0  0  0  0
 20 21  1  0  0  0  0
 21 22  1  0  0  0  0
 22 23  1  0  0  0  0
 22 41  1  0  0  0  0
 22 42  1  0  0  0  0
 23 24  1  0  0  0  0
 23 43  1  0  0  0  0
 23 44  1  0  0  0  0
 24 25  1  0  0  0  0
 24 45  1  0  0  0  0
 24 46  1  0  0  0  0
 25 26  1  0  0  0  0
 25 47  1  0  0  0  0
 25 48  1  0  0  0  0
 26 27  2  0  0  0  0
 26 28  1  0  0  0  0
 28 29  1  0  0  0  0
 28 49  1  0  0  0  0
 29 50  1  0  0  0  0
M  END
$$$$
