CHEMBL473826
 OpenBabel04072215383D

 61 65  0  0  0  0  0  0  0  0999 V2000
    8.2452  -12.6073    6.5231 N   0  0  0  0  0  0  0  0  0  0  0  0
    8.0128  -11.5968    7.4815 C   0  0  0  0  0  0  0  0  0  0  0  0
    8.4499  -11.8354    8.7995 C   0  0  0  0  0  0  0  0  0  0  0  0
    8.3848  -10.8451    9.7806 C   0  0  0  0  0  0  0  0  0  0  0  0
    7.9130   -9.5854    9.4487 C   0  0  0  0  0  0  0  0  0  0  0  0
    7.5199   -9.3168    8.1367 C   0  0  0  0  0  0  0  0  0  0  0  0
    7.5918  -10.2935    7.1296 C   0  0  0  0  0  0  0  0  0  0  0  0
    7.2394   -9.9999    5.7778 N   0  0  0  0  0  0  0  0  0  0  0  0
    7.0904   -8.7243    5.2565 C   0  0  0  0  0  0  0  0  0  0  0  0
    7.3133   -7.6750    5.8558 O   0  0  0  0  0  0  0  0  0  0  0  0
    6.6753   -8.5940    3.8306 C   0  0  0  0  0  0  0  0  0  0  0  0
    5.8187   -9.4893    3.1731 C   0  0  0  0  0  0  0  0  0  0  0  0
    5.3714   -9.2061    1.8660 C   0  0  0  0  0  0  0  0  0  0  0  0
    5.7802   -8.0276    1.2251 C   0  0  0  0  0  0  0  0  0  0  0  0
    5.2723   -7.5864   -0.0997 C   0  0  0  0  0  0  0  0  0  0  0  0
    5.0652   -6.3856   -0.2266 O   0  0  0  0  0  0  0  0  0  0  0  0
    5.1096   -8.5637   -1.0642 N   0  0  0  0  0  0  0  0  0  0  0  0
    4.7050   -8.3393   -2.4045 C   0  0  0  0  0  0  0  0  0  0  0  0
    4.4387   -7.0671   -2.9148 C   0  0  0  0  0  0  0  0  0  0  0  0
    4.0384   -6.9033   -4.2335 C   0  0  0  0  0  0  0  0  0  0  0  0
    3.8941   -8.0138   -5.0544 C   0  0  0  0  0  0  0  0  0  0  0  0
    4.1338   -9.3121   -4.5864 C   0  0  0  0  0  0  0  0  0  0  0  0
    3.9624  -10.4526   -5.3897 N   0  0  0  0  0  0  0  0  0  0  0  0
    3.3140  -10.6019   -6.6173 C   0  0  0  0  0  0  0  0  0  0  0  0
    2.9621   -9.5307   -7.3352 N   0  0  0  0  0  0  0  0  0  0  0  0
    2.2699   -9.7119   -8.4724 C   0  0  0  0  0  0  0  0  0  0  0  0
    1.8877  -10.9398   -8.9613 C   0  0  0  0  0  0  0  0  0  0  0  0
    1.1139  -11.0927  -10.1974 C   0  0  0  0  0  0  0  0  0  0  0  0
    1.2867  -12.1849  -11.0578 C   0  0  0  0  0  0  0  0  0  0  0  0
    0.5472  -12.2827  -12.2360 C   0  0  0  0  0  0  0  0  0  0  0  0
   -0.3531  -11.2768  -12.5349 C   0  0  0  0  0  0  0  0  0  0  0  0
   -0.5598  -10.2062  -11.7444 N   0  0  0  0  0  0  0  0  0  0  0  0
    0.1692  -10.1429  -10.6048 C   0  0  0  0  0  0  0  0  0  0  0  0
    2.3189  -11.9852   -8.1617 C   0  0  0  0  0  0  0  0  0  0  0  0
    3.0238  -11.8510   -7.0073 N   0  0  0  0  0  0  0  0  0  0  0  0
    4.5663   -9.4530   -3.2537 C   0  0  0  0  0  0  0  0  0  0  0  0
    6.6382   -7.1426    1.8854 C   0  0  0  0  0  0  0  0  0  0  0  0
    7.0838   -7.4258    3.1721 C   0  0  0  0  0  0  0  0  0  0  0  0
    8.3127  -13.5328    6.9402 H   0  0  0  0  0  0  0  0  0  0  0  0
    7.6147  -12.6042    5.7357 H   0  0  0  0  0  0  0  0  0  0  0  0
    8.8503  -12.8071    9.0785 H   0  0  0  0  0  0  0  0  0  0  0  0
    8.7131  -11.0523   10.7954 H   0  0  0  0  0  0  0  0  0  0  0  0
    7.8657   -8.7979   10.1955 H   0  0  0  0  0  0  0  0  0  0  0  0
    7.1625   -8.3126    7.9354 H   0  0  0  0  0  0  0  0  0  0  0  0
    7.2716  -10.7737    5.1336 H   0  0  0  0  0  0  0  0  0  0  0  0
    5.4295  -10.3653    3.6854 H   0  0  0  0  0  0  0  0  0  0  0  0
    4.6522   -9.8710    1.3949 H   0  0  0  0  0  0  0  0  0  0  0  0
    5.3413   -9.5146   -0.8184 H   0  0  0  0  0  0  0  0  0  0  0  0
    4.5383   -6.1657   -2.3238 H   0  0  0  0  0  0  0  0  0  0  0  0
    3.8332   -5.9106   -4.6250 H   0  0  0  0  0  0  0  0  0  0  0  0
    3.5832   -7.8193   -6.0736 H   0  0  0  0  0  0  0  0  0  0  0  0
    4.0903  -11.3560   -4.9624 H   0  0  0  0  0  0  0  0  0  0  0  0
    2.0339   -8.7829   -8.9854 H   0  0  0  0  0  0  0  0  0  0  0  0
    2.0129  -12.9631  -10.8354 H   0  0  0  0  0  0  0  0  0  0  0  0
    0.6787  -13.1228  -12.9087 H   0  0  0  0  0  0  0  0  0  0  0  0
   -0.9475  -11.3045  -13.4431 H   0  0  0  0  0  0  0  0  0  0  0  0
   -0.0493   -9.2611  -10.0055 H   0  0  0  0  0  0  0  0  0  0  0  0
    2.0927  -13.0182   -8.4144 H   0  0  0  0  0  0  0  0  0  0  0  0
    4.7770  -10.4486   -2.8731 H   0  0  0  0  0  0  0  0  0  0  0  0
    6.9336   -6.2062    1.4140 H   0  0  0  0  0  0  0  0  0  0  0  0
    7.7202   -6.7012    3.6786 H   0  0  0  0  0  0  0  0  0  0  0  0
  1  2  1  0  0  0  0
  1 39  1  0  0  0  0
  1 40  1  0  0  0  0
  2  3  1  0  0  0  0
  2  7  2  0  0  0  0
  3  4  2  0  0  0  0
  3 41  1  0  0  0  0
  4  5  1  0  0  0  0
  4 42  1  0  0  0  0
  5  6  2  0  0  0  0
  5 43  1  0  0  0  0
  6  7  1  0  0  0  0
  6 44  1  0  0  0  0
  7  8  1  0  0  0  0
  8  9  1  0  0  0  0
  8 45  1  0  0  0  0
  9 10  2  0  0  0  0
  9 11  1  0  0  0  0
 11 12  1  0  0  0  0
 11 38  2  0  0  0  0
 12 13  2  0  0  0  0
 12 46  1  0  0  0  0
 13 14  1  0  0  0  0
 13 47  1  0  0  0  0
 14 15  1  0  0  0  0
 14 37  2  0  0  0  0
 15 16  2  0  0  0  0
 15 17  1  0  0  0  0
 17 18  1  0  0  0  0
 17 48  1  0  0  0  0
 18 19  1  0  0  0  0
 18 36  2  0  0  0  0
 19 20  2  0  0  0  0
 19 49  1  0  0  0  0
 20 21  1  0  0  0  0
 20 50  1  0  0  0  0
 21 22  2  0  0  0  0
 21 51  1  0  0  0  0
 22 23  1  0  0  0  0
 22 36  1  0  0  0  0
 23 24  1  0  0  0  0
 23 52  1  0  0  0  0
 24 25  1  0  0  0  0
 24 35  2  0  0  0  0
 25 26  2  0  0  0  0
 26 27  1  0  0  0  0
 26 53  1  0  0  0  0
 27 28  1  0  0  0  0
 27 34  2  0  0  0  0
 28 29  1  0  0  0  0
 28 33  2  0  0  0  0
 29 30  2  0  0  0  0
 29 54  1  0  0  0  0
 30 31  1  0  0  0  0
 30 55  1  0  0  0  0
 31 32  2  0  0  0  0
 31 56  1  0  0  0  0
 32 33  1  0  0  0  0
 33 57  1  0  0  0  0
 34 35  1  0  0  0  0
 34 58  1  0  0  0  0
 36 59  1  0  0  0  0
 37 38  1  0  0  0  0
 37 60  1  0  0  0  0
 38 61  1  0  0  0  0
M  END
$$$$
