CHEMBL1794062
 OpenBabel04072215363D

 36 37  0  0  0  0  0  0  0  0999 V2000
    6.8192    2.0660   -3.4042 C   0  0  0  0  0  0  0  0  0  0  0  0
    5.9749    1.1929   -2.7417 O   0  0  0  0  0  0  0  0  0  0  0  0
    4.8373    1.5403   -2.0807 C   0  0  0  0  0  0  0  0  0  0  0  0
    4.3799    2.8773   -2.0560 C   0  0  0  0  0  0  0  0  0  0  0  0
    3.2070    3.2164   -1.3850 C   0  0  0  0  0  0  0  0  0  0  0  0
    2.4772    2.2371   -0.7213 C   0  0  0  0  0  0  0  0  0  0  0  0
    2.9130    0.9159   -0.7281 C   0  0  0  0  0  0  0  0  0  0  0  0
    4.0948    0.5372   -1.4074 C   0  0  0  0  0  0  0  0  0  0  0  0
    4.5192   -0.8352   -1.4853 N   0  0  0  0  0  0  0  0  0  0  0  0
    3.9239   -1.9117   -0.7638 C   0  0  0  0  0  0  0  0  0  0  0  0
    4.0626   -3.2033   -1.1215 N   0  0  0  0  0  0  0  0  0  0  0  0
    3.3473   -3.8751   -0.1981 C   0  0  0  0  0  0  0  0  0  0  0  0
    2.8308   -2.9620    0.7028 C   0  0  0  0  0  0  0  0  0  0  0  0
    2.0259   -3.2138    1.9179 C   0  0  0  0  0  0  0  0  0  0  0  0
    1.6295   -4.5129    2.2868 C   0  0  0  0  0  0  0  0  0  0  0  0
    0.8947   -4.7189    3.4585 C   0  0  0  0  0  0  0  0  0  0  0  0
    0.5527   -3.6362    4.2738 C   0  0  0  0  0  0  0  0  0  0  0  0
    0.9359   -2.3434    3.9131 C   0  0  0  0  0  0  0  0  0  0  0  0
    1.6653   -2.1312    2.7418 C   0  0  0  0  0  0  0  0  0  0  0  0
    3.2048   -1.7674    0.3215 O   0  0  0  0  0  0  0  0  0  0  0  0
    0.8955   -0.3665   -3.0875 Cl  0  0  0  0  0  0  0  0  0  0  0  0
    7.6529    1.4916   -3.8582 H   0  0  0  0  0  0  0  0  0  0  0  0
    7.2418    2.8037   -2.6931 H   0  0  0  0  0  0  0  0  0  0  0  0
    6.2700    2.5892   -4.2156 H   0  0  0  0  0  0  0  0  0  0  0  0
    4.9178    3.6648   -2.5614 H   0  0  0  0  0  0  0  0  0  0  0  0
    2.8539    4.2383   -1.3853 H   0  0  0  0  0  0  0  0  0  0  0  0
    1.5591    2.4972   -0.2116 H   0  0  0  0  0  0  0  0  0  0  0  0
    2.2781    0.2139   -0.2189 H   0  0  0  0  0  0  0  0  0  0  0  0
    5.2590   -1.0844   -2.1570 H   0  0  0  0  0  0  0  0  0  0  0  0
    3.2292   -4.9497   -0.1849 H   0  0  0  0  0  0  0  0  0  0  0  0
    1.8876   -5.3666    1.6758 H   0  0  0  0  0  0  0  0  0  0  0  0
    0.5977   -5.7199    3.7399 H   0  0  0  0  0  0  0  0  0  0  0  0
   -0.0079   -3.7998    5.1847 H   0  0  0  0  0  0  0  0  0  0  0  0
    0.6723   -1.5046    4.5456 H   0  0  0  0  0  0  0  0  0  0  0  0
    1.9596   -1.1196    2.4851 H   0  0  0  0  0  0  0  0  0  0  0  0
    0.6406    0.8141   -2.4281 H   0  0  0  0  0  0  0  0  0  0  0  0
  1  2  1  0  0  0  0
  1 22  1  0  0  0  0
  1 23  1  0  0  0  0
  1 24  1  0  0  0  0
  2  3  1  0  0  0  0
  3  4  1  0  0  0  0
  3  8  2  0  0  0  0
  4  5  2  0  0  0  0
  4 25  1  0  0  0  0
  5  6  1  0  0  0  0
  5 26  1  0  0  0  0
  6  7  2  0  0  0  0
  6 27  1  0  0  0  0
  7  8  1  0  0  0  0
  7 28  1  0  0  0  0
  8  9  1  0  0  0  0
  9 10  1  0  0  0  0
  9 29  1  0  0  0  0
 10 11  2  0  0  0  0
 10 20  1  0  0  0  0
 11 12  1  0  0  0  0
 12 13  2  0  0  0  0
 12 30  1  0  0  0  0
 13 14  1  0  0  0  0
 13 20  1  0  0  0  0
 14 15  1  0  0  0  0
 14 19  2  0  0  0  0
 15 16  2  0  0  0  0
 15 31  1  0  0  0  0
 16 17  1  0  0  0  0
 16 32  1  0  0  0  0
 17 18  2  0  0  0  0
 17 33  1  0  0  0  0
 18 19  1  0  0  0  0
 18 34  1  0  0  0  0
 19 35  1  0  0  0  0
 21 36  1  0  0  0  0
M  END
$$$$
