CHEMBL411091
 OpenBabel04072215383D

 59 63  0  0  0  0  0  0  0  0999 V2000
    4.9408   -0.6157   -1.7982 C   0  0  0  0  0  0  0  0  0  0  0  0
    3.8607   -0.7732   -0.8768 O   0  0  0  0  0  0  0  0  0  0  0  0
    4.2104   -1.0073    0.4257 C   0  0  0  0  0  0  0  0  0  0  0  0
    5.4316   -0.5658    0.9618 C   0  0  0  0  0  0  0  0  0  0  0  0
    5.8802   -0.9497    2.2196 C   0  0  0  0  0  0  0  0  0  0  0  0
    7.1222   -0.5911    2.5841 N   0  0  0  0  0  0  0  0  0  0  0  0
    7.6066   -1.0554    3.7531 C   0  0  0  0  0  0  0  0  0  0  0  0
    6.9135   -1.9121    4.5792 C   0  0  0  0  0  0  0  0  0  0  0  0
    5.6245   -2.2862    4.2048 C   0  0  0  0  0  0  0  0  0  0  0  0
    5.0592   -3.2046    5.0760 O   0  0  0  0  0  0  0  0  0  0  0  0
    4.1605   -4.1484    4.6365 C   0  0  0  0  0  0  0  0  0  0  0  0
    4.1827   -4.7448    3.3828 C   0  0  0  0  0  0  0  0  0  0  0  0
    3.0477   -5.4267    2.9283 C   0  0  0  0  0  0  0  0  0  0  0  0
    1.9341   -5.6874    3.7684 C   0  0  0  0  0  0  0  0  0  0  0  0
    0.7206   -6.3358    3.3838 C   0  0  0  0  0  0  0  0  0  0  0  0
    0.3686   -6.7453    1.9859 C   0  0  0  0  0  0  0  0  0  0  0  0
   -0.7899   -6.5644    1.6213 O   0  0  0  0  0  0  0  0  0  0  0  0
    1.3577   -7.3758    1.2567 N   0  0  0  0  0  0  0  0  0  0  0  0
    1.2319   -7.9037   -0.0476 C   0  0  0  0  0  0  0  0  0  0  0  0
    0.1118   -7.7178   -0.8597 C   0  0  0  0  0  0  0  0  0  0  0  0
   -0.0068   -8.3976   -2.0764 C   0  0  0  0  0  0  0  0  0  0  0  0
    1.0030   -9.2607   -2.5076 C   0  0  0  0  0  0  0  0  0  0  0  0
    0.8299  -10.0929   -3.7426 C   0  0  0  0  0  0  0  0  0  0  0  0
    2.1648   -9.3772   -1.7384 C   0  0  0  0  0  0  0  0  0  0  0  0
    2.2817   -8.6963   -0.5226 C   0  0  0  0  0  0  0  0  0  0  0  0
   -0.3025   -6.5522    4.3245 C   0  0  0  0  0  0  0  0  0  0  0  0
   -0.1665   -6.1388    5.6392 C   0  0  0  0  0  0  0  0  0  0  0  0
    0.9937   -5.4694    6.0254 C   0  0  0  0  0  0  0  0  0  0  0  0
    2.0281   -5.2249    5.1084 C   0  0  0  0  0  0  0  0  0  0  0  0
    3.1263   -4.4541    5.5182 C   0  0  0  0  0  0  0  0  0  0  0  0
    5.0424   -1.7332    3.0300 C   0  0  0  0  0  0  0  0  0  0  0  0
    3.7162   -1.9335    2.5808 C   0  0  0  0  0  0  0  0  0  0  0  0
    3.3226   -1.6758    1.2644 C   0  0  0  0  0  0  0  0  0  0  0  0
    2.0843   -2.1885    1.0009 O   0  0  0  0  0  0  0  0  0  0  0  0
    1.6749   -2.3792   -0.3433 C   0  0  0  0  0  0  0  0  0  0  0  0
    4.6234   -1.0157   -2.7656 H   0  0  0  0  0  0  0  0  0  0  0  0
    5.8451   -1.1657   -1.5110 H   0  0  0  0  0  0  0  0  0  0  0  0
    5.1632    0.4487   -1.9200 H   0  0  0  0  0  0  0  0  0  0  0  0
    6.0996    0.0595    0.3759 H   0  0  0  0  0  0  0  0  0  0  0  0
    8.6120   -0.7268    4.0011 H   0  0  0  0  0  0  0  0  0  0  0  0
    7.3666   -2.2923    5.4879 H   0  0  0  0  0  0  0  0  0  0  0  0
    5.0038   -4.5681    2.6926 H   0  0  0  0  0  0  0  0  0  0  0  0
    3.0376   -5.6848    1.8729 H   0  0  0  0  0  0  0  0  0  0  0  0
    2.2093   -7.6117    1.7481 H   0  0  0  0  0  0  0  0  0  0  0  0
   -0.7068   -7.0686   -0.5647 H   0  0  0  0  0  0  0  0  0  0  0  0
   -0.9129   -8.2663   -2.6640 H   0  0  0  0  0  0  0  0  0  0  0  0
   -0.1119   -9.8651   -4.2527 H   0  0  0  0  0  0  0  0  0  0  0  0
    0.8117  -11.1542   -3.4709 H   0  0  0  0  0  0  0  0  0  0  0  0
    1.6487   -9.9147   -4.4454 H   0  0  0  0  0  0  0  0  0  0  0  0
    2.9731  -10.0275   -2.0645 H   0  0  0  0  0  0  0  0  0  0  0  0
    3.1868   -8.8311    0.0628 H   0  0  0  0  0  0  0  0  0  0  0  0
   -1.2303   -7.0345    4.0218 H   0  0  0  0  0  0  0  0  0  0  0  0
   -0.9631   -6.3058    6.3584 H   0  0  0  0  0  0  0  0  0  0  0  0
    1.0695   -5.1125    7.0495 H   0  0  0  0  0  0  0  0  0  0  0  0
    3.1522   -4.0239    6.5179 H   0  0  0  0  0  0  0  0  0  0  0  0
    2.9795   -2.3951    3.2330 H   0  0  0  0  0  0  0  0  0  0  0  0
    0.8656   -3.1191   -0.3347 H   0  0  0  0  0  0  0  0  0  0  0  0
    2.4653   -2.7877   -0.9801 H   0  0  0  0  0  0  0  0  0  0  0  0
    1.2684   -1.4472   -0.7429 H   0  0  0  0  0  0  0  0  0  0  0  0
  1  2  1  0  0  0  0
  1 36  1  0  0  0  0
  1 37  1  0  0  0  0
  1 38  1  0  0  0  0
  2  3  1  0  0  0  0
  3  4  1  0  0  0  0
  3 33  2  0  0  0  0
  4  5  2  0  0  0  0
  4 39  1  0  0  0  0
  5  6  1  0  0  0  0
  5 31  1  0  0  0  0
  6  7  2  0  0  0  0
  7  8  1  0  0  0  0
  7 40  1  0  0  0  0
  8  9  2  0  0  0  0
  8 41  1  0  0  0  0
  9 10  1  0  0  0  0
  9 31  1  0  0  0  0
 10 11  1  0  0  0  0
 11 12  1  0  0  0  0
 11 30  2  0  0  0  0
 12 13  2  0  0  0  0
 12 42  1  0  0  0  0
 13 14  1  0  0  0  0
 13 43  1  0  0  0  0
 14 15  1  0  0  0  0
 14 29  2  0  0  0  0
 15 16  1  0  0  0  0
 15 26  2  0  0  0  0
 16 17  2  0  0  0  0
 16 18  1  0  0  0  0
 18 19  1  0  0  0  0
 18 44  1  0  0  0  0
 19 20  1  0  0  0  0
 19 25  2  0  0  0  0
 20 21  2  0  0  0  0
 20 45  1  0  0  0  0
 21 22  1  0  0  0  0
 21 46  1  0  0  0  0
 22 23  1  0  0  0  0
 22 24  2  0  0  0  0
 23 47  1  0  0  0  0
 23 48  1  0  0  0  0
 23 49  1  0  0  0  0
 24 25  1  0  0  0  0
 24 50  1  0  0  0  0
 25 51  1  0  0  0  0
 26 27  1  0  0  0  0
 26 52  1  0  0  0  0
 27 28  2  0  0  0  0
 27 53  1  0  0  0  0
 28 29  1  0  0  0  0
 28 54  1  0  0  0  0
 29 30  1  0  0  0  0
 30 55  1  0  0  0  0
 31 32  2  0  0  0  0
 32 33  1  0  0  0  0
 32 56  1  0  0  0  0
 33 34  1  0  0  0  0
 34 35  1  0  0  0  0
 35 57  1  0  0  0  0
 35 58  1  0  0  0  0
 35 59  1  0  0  0  0
M  END
$$$$
