CHEMBL3353347
 OpenBabel04072215363D

 59 64  0  0  1  0  0  0  0  0999 V2000
    2.0324    1.9209   -0.4271 C   0  0  0  0  0  0  0  0  0  0  0  0
    2.7563    3.0759   -0.9652 N   0  0  0  0  0  0  0  0  0  0  0  0
    1.8881    4.2560   -0.9311 C   0  0  0  0  0  0  0  0  0  0  0  0
    3.9866    3.3466   -0.2044 C   0  0  0  0  0  0  0  0  0  0  0  0
    5.0384    2.2613   -0.3123 C   0  0  0  0  0  0  0  0  0  0  0  0
    5.5766    1.8889   -1.5551 C   0  0  0  0  0  0  0  0  0  0  0  0
    6.6003    0.9347   -1.6429 C   0  0  0  0  0  0  0  0  0  0  0  0
    7.0870    0.3426   -0.4779 C   0  0  0  0  0  0  0  0  0  0  0  0
    8.1913   -0.6186   -0.4545 C   0  0  0  0  0  0  0  0  0  0  0  0
    9.4384   -0.1744   -0.2021 C   0  0  0  0  0  0  0  0  0  0  0  0
   10.3582   -0.9305    0.6066 C   0  0  0  0  0  0  0  0  0  0  0  0
   10.0581   -2.1199    1.1550 N   0  0  0  0  0  0  0  0  0  0  0  0
   10.8263   -2.1726    2.2453 N   0  0  0  0  0  0  0  0  0  0  0  0
   11.6111   -1.0633    2.4329 C   0  0  0  0  0  0  0  0  0  0  0  0
   12.3345   -0.6021    3.5423 C   0  0  0  0  0  0  0  0  0  0  0  0
   12.9925    0.6314    3.4195 C   0  0  0  0  0  0  0  0  0  0  0  0
   13.5587    1.3945    4.5922 C   0  0  2  0  0  0  0  0  0  0  0  0
   12.9778    1.5608    5.9721 C   0  0  0  0  0  0  0  0  0  0  0  0
   12.7654    2.6616    4.9879 C   0  0  1  0  0  0  0  0  0  0  0  0
   13.5332    3.9489    4.8236 C   0  0  0  0  0  0  0  0  0  0  0  0
   14.7055    4.1156    5.1149 O   0  0  0  0  0  0  0  0  0  0  0  0
   12.6846    4.8507    4.1997 N   0  0  0  0  0  0  0  0  0  0  0  0
   11.4325    4.2878    3.9376 C   0  0  0  0  0  0  0  0  0  0  0  0
   10.3824    4.8598    3.2491 C   0  0  0  0  0  0  0  0  0  0  0  0
    9.2022    4.1206    3.1552 C   0  0  0  0  0  0  0  0  0  0  0  0
    9.0829    2.8802    3.8045 C   0  0  0  0  0  0  0  0  0  0  0  0
   10.1736    2.3158    4.4768 C   0  0  0  0  0  0  0  0  0  0  0  0
   11.3826    2.9974    4.4817 C   0  0  0  0  0  0  0  0  0  0  0  0
   13.0678    1.2317    2.1460 C   0  0  0  0  0  0  0  0  0  0  0  0
   12.3060    0.7848    1.0626 C   0  0  0  0  0  0  0  0  0  0  0  0
   11.4992   -0.3470    1.2463 C   0  0  0  0  0  0  0  0  0  0  0  0
    6.5328    0.6924    0.7619 C   0  0  0  0  0  0  0  0  0  0  0  0
    5.5165    1.6420    0.8478 C   0  0  0  0  0  0  0  0  0  0  0  0
    1.1352    1.7251   -1.0249 H   0  0  0  0  0  0  0  0  0  0  0  0
    1.7234    2.0738    0.6142 H   0  0  0  0  0  0  0  0  0  0  0  0
    2.6354    1.0083   -0.4759 H   0  0  0  0  0  0  0  0  0  0  0  0
    1.0085    4.1029   -1.5650 H   0  0  0  0  0  0  0  0  0  0  0  0
    2.4102    5.1356   -1.3243 H   0  0  0  0  0  0  0  0  0  0  0  0
    1.5457    4.4887    0.0850 H   0  0  0  0  0  0  0  0  0  0  0  0
    3.7482    3.5379    0.8506 H   0  0  0  0  0  0  0  0  0  0  0  0
    4.4601    4.2639   -0.5803 H   0  0  0  0  0  0  0  0  0  0  0  0
    5.1988    2.3539   -2.4674 H   0  0  0  0  0  0  0  0  0  0  0  0
    7.0047    0.6623   -2.6128 H   0  0  0  0  0  0  0  0  0  0  0  0
    7.9099   -1.6490   -0.2531 H   0  0  0  0  0  0  0  0  0  0  0  0
    9.6529    0.8837   -0.3232 H   0  0  0  0  0  0  0  0  0  0  0  0
   10.7079   -2.9514    2.8740 H   0  0  0  0  0  0  0  0  0  0  0  0
   12.2940   -1.1212    4.4943 H   0  0  0  0  0  0  0  0  0  0  0  0
   14.6471    1.4629    4.5823 H   0  0  0  0  0  0  0  0  0  0  0  0
   13.6540    1.7715    6.7945 H   0  0  0  0  0  0  0  0  0  0  0  0
   12.1365    0.9435    6.2611 H   0  0  0  0  0  0  0  0  0  0  0  0
   12.9588    5.7940    3.9749 H   0  0  0  0  0  0  0  0  0  0  0  0
   10.4729    5.8269    2.7694 H   0  0  0  0  0  0  0  0  0  0  0  0
    8.3636    4.5063    2.5795 H   0  0  0  0  0  0  0  0  0  0  0  0
    8.1373    2.3433    3.7666 H   0  0  0  0  0  0  0  0  0  0  0  0
   10.0714    1.3533    4.9666 H   0  0  0  0  0  0  0  0  0  0  0  0
   13.6617    2.1372    2.0234 H   0  0  0  0  0  0  0  0  0  0  0  0
   12.3011    1.3429    0.1319 H   0  0  0  0  0  0  0  0  0  0  0  0
    6.9017    0.2229    1.6726 H   0  0  0  0  0  0  0  0  0  0  0  0
    5.1133    1.8976    1.8241 H   0  0  0  0  0  0  0  0  0  0  0  0
  1  2  1  0  0  0  0
  1 34  1  0  0  0  0
  1 35  1  0  0  0  0
  1 36  1  0  0  0  0
  2  3  1  0  0  0  0
  2  4  1  0  0  0  0
  3 37  1  0  0  0  0
  3 38  1  0  0  0  0
  3 39  1  0  0  0  0
  4  5  1  0  0  0  0
  4 40  1  0  0  0  0
  4 41  1  0  0  0  0
  5  6  1  0  0  0  0
  5 33  2  0  0  0  0
  6  7  2  0  0  0  0
  6 42  1  0  0  0  0
  7  8  1  0  0  0  0
  7 43  1  0  0  0  0
  8  9  1  0  0  0  0
  8 32  2  0  0  0  0
  9 10  2  0  0  0  0
  9 44  1  0  0  0  0
 10 11  1  0  0  0  0
 10 45  1  0  0  0  0
 11 12  2  0  0  0  0
 11 31  1  0  0  0  0
 12 13  1  0  0  0  0
 13 14  1  0  0  0  0
 13 46  1  0  0  0  0
 14 15  1  0  0  0  0
 14 31  2  0  0  0  0
 15 16  2  0  0  0  0
 15 47  1  0  0  0  0
 16 29  1  0  0  0  0
 16 17  1  0  0  0  0
 17 18  1  0  0  0  0
 17 19  1  0  0  0  0
 17 48  1  6  0  0  0
 18 19  1  0  0  0  0
 18 49  1  0  0  0  0
 18 50  1  0  0  0  0
 19 20  1  1  0  0  0
 19 28  1  0  0  0  0
 20 22  1  0  0  0  0
 20 21  2  0  0  0  0
 22 23  1  0  0  0  0
 22 51  1  0  0  0  0
 23 24  1  0  0  0  0
 23 28  2  0  0  0  0
 24 25  2  0  0  0  0
 24 52  1  0  0  0  0
 25 26  1  0  0  0  0
 25 53  1  0  0  0  0
 26 27  2  0  0  0  0
 26 54  1  0  0  0  0
 27 28  1  0  0  0  0
 27 55  1  0  0  0  0
 29 30  2  0  0  0  0
 29 56  1  0  0  0  0
 30 31  1  0  0  0  0
 30 57  1  0  0  0  0
 32 33  1  0  0  0  0
 32 58  1  0  0  0  0
 33 59  1  0  0  0  0
M  END
$$$$
