CHEMBL3900345
 OpenBabel04072215373D

 57 61  0  0  0  0  0  0  0  0999 V2000
    3.0541    0.3819    1.6705 C   0  0  0  0  0  0  0  0  0  0  0  0
    1.6411    0.3800    1.1796 C   0  0  0  0  0  0  0  0  0  0  0  0
    1.0345   -0.8032    0.7619 C   0  0  0  0  0  0  0  0  0  0  0  0
   -0.2443   -0.8905    0.3402 N   0  0  0  0  0  0  0  0  0  0  0  0
   -0.9598    0.2569    0.3486 C   0  0  0  0  0  0  0  0  0  0  0  0
   -0.4481    1.4937    0.7309 C   0  0  0  0  0  0  0  0  0  0  0  0
   -1.3870    2.6307    0.7658 C   0  0  0  0  0  0  0  0  0  0  0  0
   -2.5617    2.3611    0.9996 O   0  0  0  0  0  0  0  0  0  0  0  0
   -0.8781    3.8912    0.4803 N   0  0  0  0  0  0  0  0  0  0  0  0
   -1.6647    5.0710    0.4398 C   0  0  0  0  0  0  0  0  0  0  0  0
   -2.9494    5.1466    0.9711 C   0  0  0  0  0  0  0  0  0  0  0  0
   -3.7476    6.2806    0.7883 C   0  0  0  0  0  0  0  0  0  0  0  0
   -3.2529    7.3643    0.0931 C   0  0  0  0  0  0  0  0  0  0  0  0
   -1.9223    7.3586   -0.3384 C   0  0  0  0  0  0  0  0  0  0  0  0
   -1.3341    8.5427   -0.9933 C   0  0  0  0  0  0  0  0  0  0  0  0
   -0.4497    8.3527   -1.8353 O   0  0  0  0  0  0  0  0  0  0  0  0
   -1.7428    9.9432   -0.6669 C   0  0  0  0  0  0  0  0  0  0  0  0
   -2.3957   10.3265    0.5163 C   0  0  0  0  0  0  0  0  0  0  0  0
   -2.8007   11.6680    0.7352 C   0  0  0  0  0  0  0  0  0  0  0  0
   -2.2986   12.6540   -0.1425 C   0  0  0  0  0  0  0  0  0  0  0  0
   -2.3835   14.0522   -0.4167 C   0  0  0  0  0  0  0  0  0  0  0  0
   -3.5169   14.9381   -0.4085 C   0  0  0  0  0  0  0  0  0  0  0  0
   -3.3386   16.2734   -0.4894 C   0  0  0  0  0  0  0  0  0  0  0  0
   -4.3297   17.3247   -0.7295 C   0  0  0  0  0  0  0  0  0  0  0  0
   -5.6844   17.1449   -0.4545 C   0  0  0  0  0  0  0  0  0  0  0  0
   -6.5618   18.2313   -0.4990 C   0  0  0  0  0  0  0  0  0  0  0  0
   -6.0923   19.4983   -0.8427 C   0  0  0  0  0  0  0  0  0  0  0  0
   -4.7548   19.6779   -1.1801 C   0  0  0  0  0  0  0  0  0  0  0  0
   -3.8779   18.5933   -1.1335 C   0  0  0  0  0  0  0  0  0  0  0  0
   -1.2593   14.4616   -1.0186 N   0  0  0  0  0  0  0  0  0  0  0  0
   -0.8180   13.3349   -1.6011 N   0  0  0  0  0  0  0  0  0  0  0  0
   -1.4630   12.2295   -1.1680 C   0  0  0  0  0  0  0  0  0  0  0  0
   -1.3156   10.9114   -1.5699 C   0  0  0  0  0  0  0  0  0  0  0  0
   -1.1407    6.2079   -0.1882 C   0  0  0  0  0  0  0  0  0  0  0  0
    0.8793    1.5568    1.1540 C   0  0  0  0  0  0  0  0  0  0  0  0
    3.4922   -0.6210    1.6283 H   0  0  0  0  0  0  0  0  0  0  0  0
    3.0914    0.7183    2.7114 H   0  0  0  0  0  0  0  0  0  0  0  0
    3.6685    1.0431    1.0520 H   0  0  0  0  0  0  0  0  0  0  0  0
    1.5692   -1.7494    0.7653 H   0  0  0  0  0  0  0  0  0  0  0  0
   -1.9974    0.1495    0.0382 H   0  0  0  0  0  0  0  0  0  0  0  0
    0.0549    3.9459    0.1078 H   0  0  0  0  0  0  0  0  0  0  0  0
   -3.3836    4.3287    1.5365 H   0  0  0  0  0  0  0  0  0  0  0  0
   -4.7634    6.2885    1.1743 H   0  0  0  0  0  0  0  0  0  0  0  0
   -3.9236    8.2035   -0.0902 H   0  0  0  0  0  0  0  0  0  0  0  0
   -2.5762    9.6054    1.3087 H   0  0  0  0  0  0  0  0  0  0  0  0
   -3.3370   11.9328    1.6448 H   0  0  0  0  0  0  0  0  0  0  0  0
   -4.4937   14.4958   -0.5860 H   0  0  0  0  0  0  0  0  0  0  0  0
   -2.3202   16.6500   -0.3848 H   0  0  0  0  0  0  0  0  0  0  0  0
   -6.0663   16.1742   -0.1554 H   0  0  0  0  0  0  0  0  0  0  0  0
   -7.6025   18.0873   -0.2332 H   0  0  0  0  0  0  0  0  0  0  0  0
   -6.7704   20.3471   -0.8330 H   0  0  0  0  0  0  0  0  0  0  0  0
   -4.3858   20.6653   -1.4469 H   0  0  0  0  0  0  0  0  0  0  0  0
   -2.8306   18.7565   -1.3843 H   0  0  0  0  0  0  0  0  0  0  0  0
   -0.0398   13.4167   -2.2296 H   0  0  0  0  0  0  0  0  0  0  0  0
   -0.7798   10.6575   -2.4793 H   0  0  0  0  0  0  0  0  0  0  0  0
   -0.1266    6.1946   -0.5964 H   0  0  0  0  0  0  0  0  0  0  0  0
    1.3083    2.4882    1.5121 H   0  0  0  0  0  0  0  0  0  0  0  0
  1  2  1  0  0  0  0
  1 36  1  0  0  0  0
  1 37  1  0  0  0  0
  1 38  1  0  0  0  0
  2  3  1  0  0  0  0
  2 35  2  0  0  0  0
  3  4  2  0  0  0  0
  3 39  1  0  0  0  0
  4  5  1  0  0  0  0
  5  6  2  0  0  0  0
  5 40  1  0  0  0  0
  6  7  1  0  0  0  0
  6 35  1  0  0  0  0
  7  8  2  0  0  0  0
  7  9  1  0  0  0  0
  9 10  1  0  0  0  0
  9 41  1  0  0  0  0
 10 11  1  0  0  0  0
 10 34  2  0  0  0  0
 11 12  2  0  0  0  0
 11 42  1  0  0  0  0
 12 13  1  0  0  0  0
 12 43  1  0  0  0  0
 13 14  2  0  0  0  0
 13 44  1  0  0  0  0
 14 15  1  0  0  0  0
 14 34  1  0  0  0  0
 15 16  2  0  0  0  0
 15 17  1  0  0  0  0
 17 18  1  0  0  0  0
 17 33  2  0  0  0  0
 18 19  2  0  0  0  0
 18 45  1  0  0  0  0
 19 20  1  0  0  0  0
 19 46  1  0  0  0  0
 20 21  1  0  0  0  0
 20 32  2  0  0  0  0
 21 22  1  0  0  0  0
 21 30  2  0  0  0  0
 22 23  2  0  0  0  0
 22 47  1  0  0  0  0
 23 24  1  0  0  0  0
 23 48  1  0  0  0  0
 24 25  1  0  0  0  0
 24 29  2  0  0  0  0
 25 26  2  0  0  0  0
 25 49  1  0  0  0  0
 26 27  1  0  0  0  0
 26 50  1  0  0  0  0
 27 28  2  0  0  0  0
 27 51  1  0  0  0  0
 28 29  1  0  0  0  0
 28 52  1  0  0  0  0
 29 53  1  0  0  0  0
 30 31  1  0  0  0  0
 31 32  1  0  0  0  0
 31 54  1  0  0  0  0
 32 33  1  0  0  0  0
 33 55  1  0  0  0  0
 34 56  1  0  0  0  0
 35 57  1  0  0  0  0
M  END
$$$$
