CHEMBL475709
 OpenBabel04072215383D

 36 38  0  0  0  0  0  0  0  0999 V2000
    1.0290    0.2489   -0.3888 O   0  0  0  0  0  0  0  0  0  0  0  0
    2.1596   -0.1114   -0.0593 C   0  0  0  0  0  0  0  0  0  0  0  0
    2.7432    0.1257    1.1789 N   0  0  0  0  0  0  0  0  0  0  0  0
    2.1345    0.8426    2.2312 C   0  0  0  0  0  0  0  0  0  0  0  0
    0.7558    1.0795    2.2796 C   0  0  0  0  0  0  0  0  0  0  0  0
    0.1960    1.8927    3.2648 C   0  0  0  0  0  0  0  0  0  0  0  0
    1.0160    2.4606    4.2310 C   0  0  0  0  0  0  0  0  0  0  0  0
    0.3362    3.5141    5.4076 Cl  0  0  0  0  0  0  0  0  0  0  0  0
    2.3824    2.1832    4.2401 C   0  0  0  0  0  0  0  0  0  0  0  0
    2.9409    1.3639    3.2477 C   0  0  0  0  0  0  0  0  0  0  0  0
    3.0200   -0.7962   -1.0395 C   0  0  0  0  0  0  0  0  0  0  0  0
    4.2143   -1.2913   -0.6812 N   0  0  0  0  0  0  0  0  0  0  0  0
    4.8982   -2.0381   -1.9962 S   0  0  0  0  0  0  0  0  0  0  0  0
    3.6474   -1.6664   -3.1011 C   0  0  0  0  0  0  0  0  0  0  0  0
    2.6728   -0.9521   -2.4413 C   0  0  0  0  0  0  0  0  0  0  0  0
    1.5154   -0.4836   -2.9918 N   0  0  0  0  0  0  0  0  0  0  0  0
    1.4095    0.0231   -4.3485 C   0  0  0  0  0  0  0  0  0  0  0  0
    1.0938    1.5024   -4.3571 C   0  0  0  0  0  0  0  0  0  0  0  0
    1.9879    2.4381   -3.8263 C   0  0  0  0  0  0  0  0  0  0  0  0
    1.6785    3.7881   -3.9163 C   0  0  0  0  0  0  0  0  0  0  0  0
    0.5556    4.2650   -4.4931 N   0  0  0  0  0  0  0  0  0  0  0  0
   -0.3035    3.3507   -4.9879 C   0  0  0  0  0  0  0  0  0  0  0  0
   -0.0835    1.9811   -4.9439 C   0  0  0  0  0  0  0  0  0  0  0  0
    3.7284   -0.1125    1.2441 H   0  0  0  0  0  0  0  0  0  0  0  0
    0.0740    0.6401    1.5581 H   0  0  0  0  0  0  0  0  0  0  0  0
   -0.8728    2.0846    3.2524 H   0  0  0  0  0  0  0  0  0  0  0  0
    3.0193    2.6195    5.0051 H   0  0  0  0  0  0  0  0  0  0  0  0
    4.0127    1.1834    3.2632 H   0  0  0  0  0  0  0  0  0  0  0  0
    3.6802   -1.9958   -4.1287 H   0  0  0  0  0  0  0  0  0  0  0  0
    0.8465   -0.0332   -2.3527 H   0  0  0  0  0  0  0  0  0  0  0  0
    0.6065   -0.5284   -4.8509 H   0  0  0  0  0  0  0  0  0  0  0  0
    2.3193   -0.1416   -4.9375 H   0  0  0  0  0  0  0  0  0  0  0  0
    2.9133    2.1272   -3.3515 H   0  0  0  0  0  0  0  0  0  0  0  0
    2.3503    4.5453   -3.5218 H   0  0  0  0  0  0  0  0  0  0  0  0
   -1.2004    3.7598   -5.4452 H   0  0  0  0  0  0  0  0  0  0  0  0
   -0.8196    1.3072   -5.3699 H   0  0  0  0  0  0  0  0  0  0  0  0
  1  2  2  0  0  0  0
  2  3  1  0  0  0  0
  2 11  1  0  0  0  0
  3  4  1  0  0  0  0
  3 24  1  0  0  0  0
  4  5  1  0  0  0  0
  4 10  2  0  0  0  0
  5  6  2  0  0  0  0
  5 25  1  0  0  0  0
  6  7  1  0  0  0  0
  6 26  1  0  0  0  0
  7  8  1  0  0  0  0
  7  9  2  0  0  0  0
  9 10  1  0  0  0  0
  9 27  1  0  0  0  0
 10 28  1  0  0  0  0
 11 12  2  0  0  0  0
 11 15  1  0  0  0  0
 12 13  1  0  0  0  0
 13 14  1  0  0  0  0
 14 15  2  0  0  0  0
 14 29  1  0  0  0  0
 15 16  1  0  0  0  0
 16 17  1  0  0  0  0
 16 30  1  0  0  0  0
 17 18  1  0  0  0  0
 17 31  1  0  0  0  0
 17 32  1  0  0  0  0
 18 19  1  0  0  0  0
 18 23  2  0  0  0  0
 19 20  2  0  0  0  0
 19 33  1  0  0  0  0
 20 21  1  0  0  0  0
 20 34  1  0  0  0  0
 21 22  2  0  0  0  0
 22 23  1  0  0  0  0
 22 35  1  0  0  0  0
 23 36  1  0  0  0  0
M  END
$$$$
