CHEMBL4758393
 OpenBabel04072215383D

 50 53  0  0  0  0  0  0  0  0999 V2000
    5.3201   -4.1757   -5.7405 C   0  0  0  0  0  0  0  0  0  0  0  0
    5.8632   -3.1562   -6.5871 O   0  0  0  0  0  0  0  0  0  0  0  0
    5.8570   -1.8919   -6.0577 C   0  0  0  0  0  0  0  0  0  0  0  0
    5.9987   -1.6863   -4.6727 C   0  0  0  0  0  0  0  0  0  0  0  0
    5.8388   -0.4427   -4.0817 C   0  0  0  0  0  0  0  0  0  0  0  0
    5.8758   -0.3603   -2.7486 N   0  0  0  0  0  0  0  0  0  0  0  0
    5.6165    0.8380   -2.2188 C   0  0  0  0  0  0  0  0  0  0  0  0
    5.3215    1.9465   -2.8972 N   0  0  0  0  0  0  0  0  0  0  0  0
    5.3031    1.8565   -4.2406 C   0  0  0  0  0  0  0  0  0  0  0  0
    4.9157    2.9935   -4.9970 N   0  0  0  0  0  0  0  0  0  0  0  0
    4.2121    4.1052   -4.4939 C   0  0  0  0  0  0  0  0  0  0  0  0
    4.4777    5.3821   -4.9741 C   0  0  0  0  0  0  0  0  0  0  0  0
    3.8526    6.5027   -4.4177 C   0  0  0  0  0  0  0  0  0  0  0  0
    2.9344    6.3705   -3.3723 C   0  0  0  0  0  0  0  0  0  0  0  0
    2.3753    7.4674   -2.6717 N   0  0  0  0  0  0  0  0  0  0  0  0
    2.6879    8.8017   -2.8773 C   0  0  0  0  0  0  0  0  0  0  0  0
    3.4309    9.2282   -3.7568 O   0  0  0  0  0  0  0  0  0  0  0  0
    2.1125    9.7969   -1.9437 C   0  0  0  0  0  0  0  0  0  0  0  0
    1.7819    9.4967   -0.6227 C   0  0  0  0  0  0  0  0  0  0  0  0
    1.8583    8.2393   -0.1610 F   0  0  0  0  0  0  0  0  0  0  0  0
    1.3784   10.4995    0.2649 C   0  0  0  0  0  0  0  0  0  0  0  0
    1.2952   11.8232   -0.1672 C   0  0  0  0  0  0  0  0  0  0  0  0
    1.5924   12.1320   -1.4913 C   0  0  0  0  0  0  0  0  0  0  0  0
    1.9928   11.1243   -2.3675 C   0  0  0  0  0  0  0  0  0  0  0  0
    2.2435   11.4784   -3.6364 F   0  0  0  0  0  0  0  0  0  0  0  0
    2.5779    5.0838   -2.9663 C   0  0  0  0  0  0  0  0  0  0  0  0
    3.2009    3.9653   -3.5321 C   0  0  0  0  0  0  0  0  0  0  0  0
    5.5920    0.6555   -4.9054 C   0  0  0  0  0  0  0  0  0  0  0  0
    5.5907    0.4826   -6.3070 C   0  0  0  0  0  0  0  0  0  0  0  0
    5.7104   -0.7816   -6.8938 C   0  0  0  0  0  0  0  0  0  0  0  0
    5.6226   -0.7049   -8.2533 O   0  0  0  0  0  0  0  0  0  0  0  0
    5.5332   -1.8838   -9.0322 C   0  0  0  0  0  0  0  0  0  0  0  0
    4.7956   -4.9002   -6.3700 H   0  0  0  0  0  0  0  0  0  0  0  0
    4.5875   -3.8011   -5.0140 H   0  0  0  0  0  0  0  0  0  0  0  0
    6.1344   -4.6922   -5.2225 H   0  0  0  0  0  0  0  0  0  0  0  0
    6.1977   -2.5224   -4.0068 H   0  0  0  0  0  0  0  0  0  0  0  0
    5.6292    0.9164   -1.1377 H   0  0  0  0  0  0  0  0  0  0  0  0
    5.6589    3.2463   -5.6407 H   0  0  0  0  0  0  0  0  0  0  0  0
    5.2102    5.5395   -5.7625 H   0  0  0  0  0  0  0  0  0  0  0  0
    4.1400    7.4693   -4.8162 H   0  0  0  0  0  0  0  0  0  0  0  0
    1.7739    7.2344   -1.8886 H   0  0  0  0  0  0  0  0  0  0  0  0
    1.1486   10.2459    1.2965 H   0  0  0  0  0  0  0  0  0  0  0  0
    1.0042   12.6124    0.5220 H   0  0  0  0  0  0  0  0  0  0  0  0
    1.5308   13.1537   -1.8556 H   0  0  0  0  0  0  0  0  0  0  0  0
    1.8380    4.9198   -2.1882 H   0  0  0  0  0  0  0  0  0  0  0  0
    2.9146    2.9743   -3.1926 H   0  0  0  0  0  0  0  0  0  0  0  0
    5.4413    1.3379   -6.9631 H   0  0  0  0  0  0  0  0  0  0  0  0
    5.2178   -1.5755  -10.0356 H   0  0  0  0  0  0  0  0  0  0  0  0
    4.7701   -2.5726   -8.6621 H   0  0  0  0  0  0  0  0  0  0  0  0
    6.5122   -2.3618   -9.1265 H   0  0  0  0  0  0  0  0  0  0  0  0
  1  2  1  0  0  0  0
  1 33  1  0  0  0  0
  1 34  1  0  0  0  0
  1 35  1  0  0  0  0
  2  3  1  0  0  0  0
  3  4  1  0  0  0  0
  3 30  2  0  0  0  0
  4  5  2  0  0  0  0
  4 36  1  0  0  0  0
  5  6  1  0  0  0  0
  5 28  1  0  0  0  0
  6  7  2  0  0  0  0
  7  8  1  0  0  0  0
  7 37  1  0  0  0  0
  8  9  2  0  0  0  0
  9 10  1  0  0  0  0
  9 28  1  0  0  0  0
 10 11  1  0  0  0  0
 10 38  1  0  0  0  0
 11 12  1  0  0  0  0
 11 27  2  0  0  0  0
 12 13  2  0  0  0  0
 12 39  1  0  0  0  0
 13 14  1  0  0  0  0
 13 40  1  0  0  0  0
 14 15  1  0  0  0  0
 14 26  2  0  0  0  0
 15 16  1  0  0  0  0
 15 41  1  0  0  0  0
 16 17  2  0  0  0  0
 16 18  1  0  0  0  0
 18 19  1  0  0  0  0
 18 24  2  0  0  0  0
 19 20  1  0  0  0  0
 19 21  2  0  0  0  0
 21 22  1  0  0  0  0
 21 42  1  0  0  0  0
 22 23  2  0  0  0  0
 22 43  1  0  0  0  0
 23 24  1  0  0  0  0
 23 44  1  0  0  0  0
 24 25  1  0  0  0  0
 26 27  1  0  0  0  0
 26 45  1  0  0  0  0
 27 46  1  0  0  0  0
 28 29  2  0  0  0  0
 29 30  1  0  0  0  0
 29 47  1  0  0  0  0
 30 31  1  0  0  0  0
 31 32  1  0  0  0  0
 32 48  1  0  0  0  0
 32 49  1  0  0  0  0
 32 50  1  0  0  0  0
M  END
$$$$
