CHEMBL3923411
 OpenBabel04072215373D

 66 68  0  0  0  0  0  0  0  0999 V2000
    2.7991   -0.8383    0.5044 O   0  0  0  0  0  0  0  0  0  0  0  0
    2.3745    0.2151    0.0389 C   0  0  0  0  0  0  0  0  0  0  0  0
    1.2813    0.8978    0.6048 N   0  0  0  0  0  0  0  0  0  0  0  0
    0.1385    0.1219    1.2874 S   0  0  0  0  0  0  0  0  0  0  0  0
   -0.4278   -1.1101    0.7765 O   0  0  0  0  0  0  0  0  0  0  0  0
    0.6121   -0.1804    2.9899 C   0  0  0  0  0  0  0  0  0  0  0  0
   -0.4639   -0.9537    3.7502 C   0  0  0  0  0  0  0  0  0  0  0  0
   -0.0563   -1.2451    5.1845 C   0  0  0  0  0  0  0  0  0  0  0  0
    1.1268   -2.0259    5.2172 O   0  0  0  0  0  0  0  0  0  0  0  0
   -1.2210    1.2828    1.4399 C   0  0  0  0  0  0  0  0  0  0  0  0
   -1.6888    1.8334    0.0967 C   0  0  0  0  0  0  0  0  0  0  0  0
   -2.1914    0.7613   -0.8653 C   0  0  0  0  0  0  0  0  0  0  0  0
   -2.6275    1.3776   -2.0692 O   0  0  0  0  0  0  0  0  0  0  0  0
    3.1358    0.8166   -1.0927 C   0  0  0  0  0  0  0  0  0  0  0  0
    4.2391    0.1458   -1.6086 C   0  0  0  0  0  0  0  0  0  0  0  0
    5.0127    0.6238   -2.6154 N   0  0  0  0  0  0  0  0  0  0  0  0
    4.6595    1.8254   -3.1310 C   0  0  0  0  0  0  0  0  0  0  0  0
    3.5655    2.5663   -2.6996 C   0  0  0  0  0  0  0  0  0  0  0  0
    3.2719    3.8264   -3.3082 C   0  0  0  0  0  0  0  0  0  0  0  0
    3.0821    4.8944   -3.8274 C   0  0  0  0  0  0  0  0  0  0  0  0
    2.8973    6.1946   -4.3994 C   0  0  0  0  0  0  0  0  0  0  0  0
    2.5325    7.2513   -3.5655 C   0  0  0  0  0  0  0  0  0  0  0  0
    2.3737    8.5255   -4.0958 C   0  0  0  0  0  0  0  0  0  0  0  0
    2.5805    8.7449   -5.4602 C   0  0  0  0  0  0  0  0  0  0  0  0
    2.9507    7.7033   -6.3171 C   0  0  0  0  0  0  0  0  0  0  0  0
    3.1890    7.8808   -7.7042 N   0  0  0  0  0  0  0  0  0  0  0  0
    3.0948    9.0875   -8.3927 C   0  0  0  0  0  0  0  0  0  0  0  0
    2.8015   10.1771   -7.9089 O   0  0  0  0  0  0  0  0  0  0  0  0
    3.3924    9.0785   -9.8536 C   0  0  0  0  0  0  0  0  0  0  0  0
    3.2005    7.9668  -10.6725 C   0  0  0  0  0  0  0  0  0  0  0  0
    3.4267    8.0798  -12.0489 C   0  0  0  0  0  0  0  0  0  0  0  0
    3.8295    9.2969  -12.6249 C   0  0  0  0  0  0  0  0  0  0  0  0
    4.0511    9.2956  -14.3354 Cl  0  0  0  0  0  0  0  0  0  0  0  0
    4.0151   10.4265  -11.8268 C   0  0  0  0  0  0  0  0  0  0  0  0
    4.3997   11.7930  -12.3381 C   0  0  0  0  0  0  0  0  0  0  0  0
    4.6059   11.9026  -13.6756 F   0  0  0  0  0  0  0  0  0  0  0  0
    3.4513   12.7269  -12.0407 F   0  0  0  0  0  0  0  0  0  0  0  0
    5.5482   12.2444  -11.7566 F   0  0  0  0  0  0  0  0  0  0  0  0
    3.7959   10.2939  -10.4390 C   0  0  0  0  0  0  0  0  0  0  0  0
    3.1049    6.4181   -5.7713 C   0  0  0  0  0  0  0  0  0  0  0  0
    2.7905    2.0516   -1.6590 C   0  0  0  0  0  0  0  0  0  0  0  0
    0.8161    0.7874    3.4585 H   0  0  0  0  0  0  0  0  0  0  0  0
    1.5440   -0.7537    2.9557 H   0  0  0  0  0  0  0  0  0  0  0  0
   -0.6540   -1.9041    3.2367 H   0  0  0  0  0  0  0  0  0  0  0  0
   -1.4061   -0.3970    3.7555 H   0  0  0  0  0  0  0  0  0  0  0  0
   -0.8498   -1.7925    5.7036 H   0  0  0  0  0  0  0  0  0  0  0  0
    0.1292   -0.3166    5.7334 H   0  0  0  0  0  0  0  0  0  0  0  0
    0.9748   -2.8257    4.6823 H   0  0  0  0  0  0  0  0  0  0  0  0
   -0.8777    2.1040    2.0787 H   0  0  0  0  0  0  0  0  0  0  0  0
   -2.0447    0.7714    1.9452 H   0  0  0  0  0  0  0  0  0  0  0  0
   -0.8862    2.4028   -0.3867 H   0  0  0  0  0  0  0  0  0  0  0  0
   -2.4938    2.5579    0.2734 H   0  0  0  0  0  0  0  0  0  0  0  0
   -3.0246    0.1973   -0.4356 H   0  0  0  0  0  0  0  0  0  0  0  0
   -1.4023    0.0625   -1.1426 H   0  0  0  0  0  0  0  0  0  0  0  0
   -3.4098    1.9189   -1.8641 H   0  0  0  0  0  0  0  0  0  0  0  0
    4.5522   -0.8215   -1.2210 H   0  0  0  0  0  0  0  0  0  0  0  0
    5.3062    2.1880   -3.9263 H   0  0  0  0  0  0  0  0  0  0  0  0
    2.3763    7.0932   -2.5013 H   0  0  0  0  0  0  0  0  0  0  0  0
    2.0956    9.3587   -3.4553 H   0  0  0  0  0  0  0  0  0  0  0  0
    2.4458    9.7621   -5.8127 H   0  0  0  0  0  0  0  0  0  0  0  0
    3.4979    7.0639   -8.2088 H   0  0  0  0  0  0  0  0  0  0  0  0
    2.8366    7.0222  -10.2785 H   0  0  0  0  0  0  0  0  0  0  0  0
    3.2592    7.2107  -12.6838 H   0  0  0  0  0  0  0  0  0  0  0  0
    3.9226   11.1716   -9.8008 H   0  0  0  0  0  0  0  0  0  0  0  0
    3.3913    5.5811   -6.4029 H   0  0  0  0  0  0  0  0  0  0  0  0
    1.9318    2.6052   -1.2875 H   0  0  0  0  0  0  0  0  0  0  0  0
  1  2  2  0  0  0  0
  2  3  1  0  0  0  0
  2 14  1  0  0  0  0
  3  4  2  0  0  0  0
  4  5  2  0  0  0  0
  4  6  1  0  0  0  0
  4 10  1  0  0  0  0
  6  7  1  0  0  0  0
  6 42  1  0  0  0  0
  6 43  1  0  0  0  0
  7  8  1  0  0  0  0
  7 44  1  0  0  0  0
  7 45  1  0  0  0  0
  8  9  1  0  0  0  0
  8 46  1  0  0  0  0
  8 47  1  0  0  0  0
  9 48  1  0  0  0  0
 10 11  1  0  0  0  0
 10 49  1  0  0  0  0
 10 50  1  0  0  0  0
 11 12  1  0  0  0  0
 11 51  1  0  0  0  0
 11 52  1  0  0  0  0
 12 13  1  0  0  0  0
 12 53  1  0  0  0  0
 12 54  1  0  0  0  0
 13 55  1  0  0  0  0
 14 15  1  0  0  0  0
 14 41  2  0  0  0  0
 15 16  2  0  0  0  0
 15 56  1  0  0  0  0
 16 17  1  0  0  0  0
 17 18  2  0  0  0  0
 17 57  1  0  0  0  0
 18 19  1  0  0  0  0
 18 41  1  0  0  0  0
 19 20  3  0  0  0  0
 20 21  1  0  0  0  0
 21 22  1  0  0  0  0
 21 40  2  0  0  0  0
 22 23  2  0  0  0  0
 22 58  1  0  0  0  0
 23 24  1  0  0  0  0
 23 59  1  0  0  0  0
 24 25  2  0  0  0  0
 24 60  1  0  0  0  0
 25 26  1  0  0  0  0
 25 40  1  0  0  0  0
 26 27  1  0  0  0  0
 26 61  1  0  0  0  0
 27 28  2  0  0  0  0
 27 29  1  0  0  0  0
 29 30  1  0  0  0  0
 29 39  2  0  0  0  0
 30 31  2  0  0  0  0
 30 62  1  0  0  0  0
 31 32  1  0  0  0  0
 31 63  1  0  0  0  0
 32 33  1  0  0  0  0
 32 34  2  0  0  0  0
 34 35  1  0  0  0  0
 34 39  1  0  0  0  0
 35 36  1  0  0  0  0
 35 37  1  0  0  0  0
 35 38  1  0  0  0  0
 39 64  1  0  0  0  0
 40 65  1  0  0  0  0
 41 66  1  0  0  0  0
M  END
$$$$
