CHEMBL250836
 OpenBabel04072215363D

 36 39  0  0  0  0  0  0  0  0999 V2000
   -2.2653   -0.3407   -1.1868 C   0  0  0  0  0  0  0  0  0  0  0  0
   -0.9797   -0.2132   -0.4563 C   0  0  0  0  0  0  0  0  0  0  0  0
   -0.4478    1.0591   -0.2813 N   0  0  0  0  0  0  0  0  0  0  0  0
    0.7079    1.0309    0.3561 N   0  0  0  0  0  0  0  0  0  0  0  0
    1.1928   -0.5148    0.7367 S   0  0  0  0  0  0  0  0  0  0  0  0
   -0.2217   -1.2400    0.0951 C   0  0  0  0  0  0  0  0  0  0  0  0
   -0.4354   -2.6545    0.0726 C   0  0  0  0  0  0  0  0  0  0  0  0
   -1.0962   -3.2353   -0.9040 N   0  0  0  0  0  0  0  0  0  0  0  0
   -1.0296   -4.5908   -0.6702 N   0  0  0  0  0  0  0  0  0  0  0  0
   -0.2884   -4.9618    0.4392 C   0  0  0  0  0  0  0  0  0  0  0  0
    0.0060   -6.0842    0.7897 O   0  0  0  0  0  0  0  0  0  0  0  0
    0.0410   -3.6542    1.0563 C   0  0  0  0  0  0  0  0  0  0  0  0
    0.5422   -3.4406    2.2798 C   0  0  0  0  0  0  0  0  0  0  0  0
    0.9342   -4.4674    3.1732 C   0  0  0  0  0  0  0  0  0  0  0  0
    2.2022   -4.9929    3.2187 C   0  0  0  0  0  0  0  0  0  0  0  0
    2.1679   -6.0539    4.0834 N   0  0  0  0  0  0  0  0  0  0  0  0
    3.2729   -6.9578    4.3060 C   0  0  0  0  0  0  0  0  0  0  0  0
    0.9149   -6.1736    4.6537 C   0  0  0  0  0  0  0  0  0  0  0  0
    0.4066   -7.1015    5.5729 C   0  0  0  0  0  0  0  0  0  0  0  0
   -0.9338   -6.9808    5.9545 C   0  0  0  0  0  0  0  0  0  0  0  0
   -1.7324   -5.9660    5.4376 C   0  0  0  0  0  0  0  0  0  0  0  0
   -3.3782   -5.8435    5.9335 Cl  0  0  0  0  0  0  0  0  0  0  0  0
   -1.2272   -5.0487    4.5137 C   0  0  0  0  0  0  0  0  0  0  0  0
    0.1193   -5.1592    4.1082 C   0  0  0  0  0  0  0  0  0  0  0  0
   -2.6548    0.6437   -1.4660 H   0  0  0  0  0  0  0  0  0  0  0  0
   -3.0134   -0.8358   -0.5608 H   0  0  0  0  0  0  0  0  0  0  0  0
   -2.1341   -0.9214   -2.1057 H   0  0  0  0  0  0  0  0  0  0  0  0
   -1.4176   -5.2570   -1.3288 H   0  0  0  0  0  0  0  0  0  0  0  0
    0.6402   -2.4358    2.6738 H   0  0  0  0  0  0  0  0  0  0  0  0
    3.0989   -4.7458    2.6652 H   0  0  0  0  0  0  0  0  0  0  0  0
    4.1325   -6.6365    3.7119 H   0  0  0  0  0  0  0  0  0  0  0  0
    2.9645   -7.9586    3.9936 H   0  0  0  0  0  0  0  0  0  0  0  0
    3.5280   -6.9401    5.3681 H   0  0  0  0  0  0  0  0  0  0  0  0
    1.0227   -7.9021    5.9692 H   0  0  0  0  0  0  0  0  0  0  0  0
   -1.3506   -7.6974    6.6581 H   0  0  0  0  0  0  0  0  0  0  0  0
   -1.8622   -4.2686    4.1070 H   0  0  0  0  0  0  0  0  0  0  0  0
  1  2  1  0  0  0  0
  1 25  1  0  0  0  0
  1 26  1  0  0  0  0
  1 27  1  0  0  0  0
  2  3  1  0  0  0  0
  2  6  2  0  0  0  0
  3  4  2  0  0  0  0
  4  5  1  0  0  0  0
  5  6  1  0  0  0  0
  6  7  1  0  0  0  0
  7  8  2  0  0  0  0
  7 12  1  0  0  0  0
  8  9  1  0  0  0  0
  9 10  1  0  0  0  0
  9 28  1  0  0  0  0
 10 11  2  0  0  0  0
 10 12  1  0  0  0  0
 12 13  2  0  0  0  0
 13 14  1  0  0  0  0
 13 29  1  0  0  0  0
 14 15  2  0  0  0  0
 14 24  1  0  0  0  0
 15 16  1  0  0  0  0
 15 30  1  0  0  0  0
 16 17  1  0  0  0  0
 16 18  1  0  0  0  0
 17 31  1  0  0  0  0
 17 32  1  0  0  0  0
 17 33  1  0  0  0  0
 18 19  1  0  0  0  0
 18 24  2  0  0  0  0
 19 20  2  0  0  0  0
 19 34  1  0  0  0  0
 20 21  1  0  0  0  0
 20 35  1  0  0  0  0
 21 22  1  0  0  0  0
 21 23  2  0  0  0  0
 23 24  1  0  0  0  0
 23 36  1  0  0  0  0
M  END
$$$$
