CHEMBL47940
 OpenBabel04072215383D

 50 54  0  0  0  0  0  0  0  0999 V2000
    1.0389    0.2401    0.0293 N   0  0  0  0  0  0  0  0  0  0  0  0
    2.4168    0.0531   -0.0050 C   0  0  0  0  0  0  0  0  0  0  0  0
    3.1482    1.1792   -0.0072 N   0  0  0  0  0  0  0  0  0  0  0  0
    4.4897    1.0723   -0.0089 C   0  0  0  0  0  0  0  0  0  0  0  0
    5.2264   -0.0458   -0.0020 N   0  0  0  0  0  0  0  0  0  0  0  0
    4.4620   -1.1538   -0.0129 C   0  0  0  0  0  0  0  0  0  0  0  0
    3.0697   -1.1976   -0.0228 C   0  0  0  0  0  0  0  0  0  0  0  0
    2.7049   -2.5917   -0.0562 C   0  0  0  0  0  0  0  0  0  0  0  0
    1.4064   -3.2493   -0.1292 C   0  0  0  0  0  0  0  0  0  0  0  0
    0.3429   -2.6293   -0.7837 C   0  0  0  0  0  0  0  0  0  0  0  0
   -0.9211   -3.2100   -0.8078 C   0  0  0  0  0  0  0  0  0  0  0  0
   -1.0959   -4.5140   -0.3458 C   0  0  0  0  0  0  0  0  0  0  0  0
   -2.2629   -5.2278   -0.5053 O   0  0  0  0  0  0  0  0  0  0  0  0
   -3.0367   -4.9875   -1.6229 C   0  0  0  0  0  0  0  0  0  0  0  0
   -2.5215   -4.6161   -2.8715 C   0  0  0  0  0  0  0  0  0  0  0  0
   -3.3819   -4.2642   -3.9093 C   0  0  0  0  0  0  0  0  0  0  0  0
   -4.7588   -4.3692   -3.7314 C   0  0  0  0  0  0  0  0  0  0  0  0
   -5.2730   -4.8361   -2.5208 C   0  0  0  0  0  0  0  0  0  0  0  0
   -4.4130   -5.1417   -1.4646 C   0  0  0  0  0  0  0  0  0  0  0  0
   -0.0469   -5.1571    0.3066 C   0  0  0  0  0  0  0  0  0  0  0  0
    1.1923   -4.5185    0.4326 C   0  0  0  0  0  0  0  0  0  0  0  0
    3.8846   -3.3141   -0.0539 C   0  0  0  0  0  0  0  0  0  0  0  0
    4.9425   -2.4378   -0.0191 N   0  0  0  0  0  0  0  0  0  0  0  0
    6.3427   -2.8180   -0.0065 C   0  0  0  0  0  0  0  0  0  0  0  0
    6.7688   -3.6862   -1.1940 C   0  0  0  0  0  0  0  0  0  0  0  0
    8.0323   -4.4060   -0.7284 C   0  0  0  0  0  0  0  0  0  0  0  0
    8.0791   -4.2712    0.7929 C   0  0  0  0  0  0  0  0  0  0  0  0
    6.7452   -3.6627    1.2026 C   0  0  0  0  0  0  0  0  0  0  0  0
    0.8233    1.2030    0.2552 H   0  0  0  0  0  0  0  0  0  0  0  0
    0.5452   -0.4576    0.5718 H   0  0  0  0  0  0  0  0  0  0  0  0
    5.0353    2.0078   -0.0095 H   0  0  0  0  0  0  0  0  0  0  0  0
    0.4761   -1.6901   -1.3120 H   0  0  0  0  0  0  0  0  0  0  0  0
   -1.7379   -2.6547   -1.2598 H   0  0  0  0  0  0  0  0  0  0  0  0
   -1.4495   -4.5482   -3.0382 H   0  0  0  0  0  0  0  0  0  0  0  0
   -2.9743   -3.9003   -4.8488 H   0  0  0  0  0  0  0  0  0  0  0  0
   -5.4305   -4.0941   -4.5398 H   0  0  0  0  0  0  0  0  0  0  0  0
   -6.3465   -4.9464   -2.3945 H   0  0  0  0  0  0  0  0  0  0  0  0
   -4.8165   -5.4820   -0.5152 H   0  0  0  0  0  0  0  0  0  0  0  0
   -0.1844   -6.1597    0.7032 H   0  0  0  0  0  0  0  0  0  0  0  0
    1.9913   -5.0396    0.9558 H   0  0  0  0  0  0  0  0  0  0  0  0
    4.0602   -4.3822   -0.0883 H   0  0  0  0  0  0  0  0  0  0  0  0
    6.9463   -1.9015   -0.0112 H   0  0  0  0  0  0  0  0  0  0  0  0
    6.9469   -3.0883   -2.0935 H   0  0  0  0  0  0  0  0  0  0  0  0
    6.0064   -4.4314   -1.4515 H   0  0  0  0  0  0  0  0  0  0  0  0
    8.9253   -3.9562   -1.1757 H   0  0  0  0  0  0  0  0  0  0  0  0
    8.0108   -5.4581   -1.0337 H   0  0  0  0  0  0  0  0  0  0  0  0
    8.9010   -3.6043    1.0784 H   0  0  0  0  0  0  0  0  0  0  0  0
    8.2527   -5.2342    1.2836 H   0  0  0  0  0  0  0  0  0  0  0  0
    6.8307   -3.0645    2.1160 H   0  0  0  0  0  0  0  0  0  0  0  0
    6.0211   -4.4624    1.4002 H   0  0  0  0  0  0  0  0  0  0  0  0
  1  2  1  0  0  0  0
  1 29  1  0  0  0  0
  1 30  1  0  0  0  0
  2  3  1  0  0  0  0
  2  7  2  0  0  0  0
  3  4  2  0  0  0  0
  4  5  1  0  0  0  0
  4 31  1  0  0  0  0
  5  6  2  0  0  0  0
  6  7  1  0  0  0  0
  6 23  1  0  0  0  0
  7  8  1  0  0  0  0
  8  9  1  0  0  0  0
  8 22  2  0  0  0  0
  9 10  1  0  0  0  0
  9 21  2  0  0  0  0
 10 11  2  0  0  0  0
 10 32  1  0  0  0  0
 11 12  1  0  0  0  0
 11 33  1  0  0  0  0
 12 13  1  0  0  0  0
 12 20  2  0  0  0  0
 13 14  1  0  0  0  0
 14 15  1  0  0  0  0
 14 19  2  0  0  0  0
 15 16  2  0  0  0  0
 15 34  1  0  0  0  0
 16 17  1  0  0  0  0
 16 35  1  0  0  0  0
 17 18  2  0  0  0  0
 17 36  1  0  0  0  0
 18 19  1  0  0  0  0
 18 37  1  0  0  0  0
 19 38  1  0  0  0  0
 20 21  1  0  0  0  0
 20 39  1  0  0  0  0
 21 40  1  0  0  0  0
 22 23  1  0  0  0  0
 22 41  1  0  0  0  0
 23 24  1  0  0  0  0
 24 25  1  0  0  0  0
 24 28  1  0  0  0  0
 24 42  1  0  0  0  0
 25 26  1  0  0  0  0
 25 43  1  0  0  0  0
 25 44  1  0  0  0  0
 26 27  1  0  0  0  0
 26 45  1  0  0  0  0
 26 46  1  0  0  0  0
 27 28  1  0  0  0  0
 27 47  1  0  0  0  0
 27 48  1  0  0  0  0
 28 49  1  0  0  0  0
 28 50  1  0  0  0  0
M  END
$$$$
