CHEMBL3633692
 OpenBabel04072215373D

 53 56  0  0  0  0  0  0  0  0999 V2000
    8.6829   -1.9551   -9.0276 C   0  0  0  0  0  0  0  0  0  0  0  0
    8.3759   -1.6233   -7.5785 C   0  0  0  0  0  0  0  0  0  0  0  0
    6.7880   -2.2721   -7.1013 S   0  0  0  0  0  0  0  0  0  0  0  0
    5.7806   -1.6650   -7.9533 O   0  0  0  0  0  0  0  0  0  0  0  0
    6.8878   -3.7165   -6.9957 O   0  0  0  0  0  0  0  0  0  0  0  0
    6.5209   -1.6603   -5.4566 C   0  0  0  0  0  0  0  0  0  0  0  0
    5.4531   -0.7986   -5.1980 C   0  0  0  0  0  0  0  0  0  0  0  0
    5.1831   -0.4050   -3.8866 C   0  0  0  0  0  0  0  0  0  0  0  0
    5.9542   -0.8945   -2.8246 C   0  0  0  0  0  0  0  0  0  0  0  0
    5.7380   -0.5774   -1.5052 O   0  0  0  0  0  0  0  0  0  0  0  0
    4.8189    0.4786   -1.2380 C   0  0  0  0  0  0  0  0  0  0  0  0
    7.0147   -1.7933   -3.0886 C   0  0  0  0  0  0  0  0  0  0  0  0
    7.7225   -2.3978   -2.0169 N   0  0  0  0  0  0  0  0  0  0  0  0
    9.0200   -2.7572   -1.9935 C   0  0  0  0  0  0  0  0  0  0  0  0
    9.5576   -3.8078   -1.2964 C   0  0  0  0  0  0  0  0  0  0  0  0
   10.9149   -3.6898   -1.4947 N   0  0  0  0  0  0  0  0  0  0  0  0
   11.9726   -4.4528   -0.9332 C   0  0  0  0  0  0  0  0  0  0  0  0
   13.2949   -4.0472   -1.1567 C   0  0  0  0  0  0  0  0  0  0  0  0
   14.3492   -4.7560   -0.5882 C   0  0  0  0  0  0  0  0  0  0  0  0
   14.0889   -5.8659    0.2174 C   0  0  0  0  0  0  0  0  0  0  0  0
   15.1564   -6.5532    0.7332 O   0  0  0  0  0  0  0  0  0  0  0  0
   12.7723   -6.2888    0.4950 C   0  0  0  0  0  0  0  0  0  0  0  0
   12.4627   -7.4053    1.4199 C   0  0  0  0  0  0  0  0  0  0  0  0
   13.2075   -7.6459    2.5820 C   0  0  0  0  0  0  0  0  0  0  0  0
   12.8682   -8.7056    3.4165 C   0  0  0  0  0  0  0  0  0  0  0  0
   11.7770   -9.4928    3.0970 C   0  0  0  0  0  0  0  0  0  0  0  0
   11.0677   -9.1836    1.9519 C   0  0  0  0  0  0  0  0  0  0  0  0
   11.3753   -8.1628    1.1174 N   0  0  0  0  0  0  0  0  0  0  0  0
   11.7199   -5.5743   -0.1245 C   0  0  0  0  0  0  0  0  0  0  0  0
   11.1620   -2.6428   -2.3250 N   0  0  0  0  0  0  0  0  0  0  0  0
   10.0054   -2.0749   -2.6378 N   0  0  0  0  0  0  0  0  0  0  0  0
    7.3102   -2.1454   -4.4127 C   0  0  0  0  0  0  0  0  0  0  0  0
    9.6736   -1.5845   -9.3061 H   0  0  0  0  0  0  0  0  0  0  0  0
    7.9487   -1.4978   -9.6985 H   0  0  0  0  0  0  0  0  0  0  0  0
    8.6593   -3.0364   -9.1995 H   0  0  0  0  0  0  0  0  0  0  0  0
    8.3513   -0.5391   -7.4349 H   0  0  0  0  0  0  0  0  0  0  0  0
    9.1305   -2.0601   -6.9201 H   0  0  0  0  0  0  0  0  0  0  0  0
    4.8087   -0.4532   -6.0037 H   0  0  0  0  0  0  0  0  0  0  0  0
    4.3389    0.2573   -3.7239 H   0  0  0  0  0  0  0  0  0  0  0  0
    4.8472    0.6905   -0.1647 H   0  0  0  0  0  0  0  0  0  0  0  0
    3.7975    0.1741   -1.4884 H   0  0  0  0  0  0  0  0  0  0  0  0
    5.0950    1.4002   -1.7634 H   0  0  0  0  0  0  0  0  0  0  0  0
    7.0638   -2.8556   -1.3927 H   0  0  0  0  0  0  0  0  0  0  0  0
    9.1142   -4.5773   -0.6872 H   0  0  0  0  0  0  0  0  0  0  0  0
   13.5243   -3.1695   -1.7586 H   0  0  0  0  0  0  0  0  0  0  0  0
   15.3654   -4.4198   -0.7698 H   0  0  0  0  0  0  0  0  0  0  0  0
   15.9795   -6.1920    0.3648 H   0  0  0  0  0  0  0  0  0  0  0  0
   14.0518   -7.0156    2.8396 H   0  0  0  0  0  0  0  0  0  0  0  0
   13.4586   -8.9047    4.3059 H   0  0  0  0  0  0  0  0  0  0  0  0
   11.4889  -10.3331    3.7267 H   0  0  0  0  0  0  0  0  0  0  0  0
   10.1991   -9.7691    1.6635 H   0  0  0  0  0  0  0  0  0  0  0  0
   10.7035   -5.9169    0.0559 H   0  0  0  0  0  0  0  0  0  0  0  0
    8.1075   -2.8565   -4.6188 H   0  0  0  0  0  0  0  0  0  0  0  0
  1  2  1  0  0  0  0
  1 33  1  0  0  0  0
  1 34  1  0  0  0  0
  1 35  1  0  0  0  0
  2  3  1  0  0  0  0
  2 36  1  0  0  0  0
  2 37  1  0  0  0  0
  3  4  2  0  0  0  0
  3  5  2  0  0  0  0
  3  6  1  0  0  0  0
  6  7  1  0  0  0  0
  6 32  2  0  0  0  0
  7  8  2  0  0  0  0
  7 38  1  0  0  0  0
  8  9  1  0  0  0  0
  8 39  1  0  0  0  0
  9 10  1  0  0  0  0
  9 12  2  0  0  0  0
 10 11  1  0  0  0  0
 11 40  1  0  0  0  0
 11 41  1  0  0  0  0
 11 42  1  0  0  0  0
 12 13  1  0  0  0  0
 12 32  1  0  0  0  0
 13 14  1  0  0  0  0
 13 43  1  0  0  0  0
 14 15  2  0  0  0  0
 14 31  1  0  0  0  0
 15 16  1  0  0  0  0
 15 44  1  0  0  0  0
 16 17  1  0  0  0  0
 16 30  1  0  0  0  0
 17 18  1  0  0  0  0
 17 29  2  0  0  0  0
 18 19  2  0  0  0  0
 18 45  1  0  0  0  0
 19 20  1  0  0  0  0
 19 46  1  0  0  0  0
 20 21  1  0  0  0  0
 20 22  2  0  0  0  0
 21 47  1  0  0  0  0
 22 23  1  0  0  0  0
 22 29  1  0  0  0  0
 23 24  1  0  0  0  0
 23 28  2  0  0  0  0
 24 25  2  0  0  0  0
 24 48  1  0  0  0  0
 25 26  1  0  0  0  0
 25 49  1  0  0  0  0
 26 27  2  0  0  0  0
 26 50  1  0  0  0  0
 27 28  1  0  0  0  0
 27 51  1  0  0  0  0
 29 52  1  0  0  0  0
 30 31  2  0  0  0  0
 32 53  1  0  0  0  0
M  END
$$$$
