CHEMBL231526
 OpenBabel04072215363D

 59 62  0  0  0  0  0  0  0  0999 V2000
    0.7576   -0.2948   -0.0556 C   0  0  0  0  0  0  0  0  0  0  0  0
    1.9035   -1.1034   -0.2919 O   0  0  0  0  0  0  0  0  0  0  0  0
    2.7322   -0.7073   -1.3076 C   0  0  0  0  0  0  0  0  0  0  0  0
    2.4734    0.3297   -2.2066 C   0  0  0  0  0  0  0  0  0  0  0  0
    3.4054    0.6466   -3.1903 C   0  0  0  0  0  0  0  0  0  0  0  0
    3.2998    1.6547   -4.1085 O   0  0  0  0  0  0  0  0  0  0  0  0
    2.1824    2.5241   -3.9769 C   0  0  0  0  0  0  0  0  0  0  0  0
    4.5947   -0.0851   -3.2639 C   0  0  0  0  0  0  0  0  0  0  0  0
    4.9144   -1.0910   -2.3323 C   0  0  0  0  0  0  0  0  0  0  0  0
    6.2749   -1.6739   -2.2727 C   0  0  0  0  0  0  0  0  0  0  0  0
    7.3822   -0.8434   -2.5949 C   0  0  0  0  0  0  0  0  0  0  0  0
    8.6988   -1.2774   -2.4881 C   0  0  0  0  0  0  0  0  0  0  0  0
    8.9192   -2.5584   -2.0313 C   0  0  0  0  0  0  0  0  0  0  0  0
    7.8543   -3.3899   -1.6932 C   0  0  0  0  0  0  0  0  0  0  0  0
    6.5356   -2.9845   -1.8189 C   0  0  0  0  0  0  0  0  0  0  0  0
    8.3368   -4.6060   -1.2117 N   0  0  0  0  0  0  0  0  0  0  0  0
    9.7281   -4.6382   -1.2125 C   0  0  0  0  0  0  0  0  0  0  0  0
   10.4381   -5.5414   -0.8127 O   0  0  0  0  0  0  0  0  0  0  0  0
   10.1543   -3.3153   -1.7923 C   0  0  0  0  0  0  0  0  0  0  0  0
   11.3475   -2.8038   -2.1289 C   0  0  0  0  0  0  0  0  0  0  0  0
   12.6381   -3.3750   -2.0697 C   0  0  0  0  0  0  0  0  0  0  0  0
   12.8616   -4.6232   -1.5614 N   0  0  0  0  0  0  0  0  0  0  0  0
   14.1899   -4.9506   -1.6756 C   0  0  0  0  0  0  0  0  0  0  0  0
   14.6639   -6.2828   -1.2216 C   0  0  0  0  0  0  0  0  0  0  0  0
   14.8560   -3.8663   -2.2307 C   0  0  0  0  0  0  0  0  0  0  0  0
   16.3306   -3.7552   -2.5041 C   0  0  0  0  0  0  0  0  0  0  0  0
   16.8104   -4.7421   -3.5626 C   0  0  0  0  0  0  0  0  0  0  0  0
   18.2716   -4.5527   -3.8776 C   0  0  0  0  0  0  0  0  0  0  0  0
   18.9983   -3.6961   -3.4016 O   0  0  0  0  0  0  0  0  0  0  0  0
   18.7194   -5.4622   -4.7766 O   0  0  0  0  0  0  0  0  0  0  0  0
   13.8626   -2.8613   -2.4812 C   0  0  0  0  0  0  0  0  0  0  0  0
   14.0619   -1.5056   -3.0784 C   0  0  0  0  0  0  0  0  0  0  0  0
    3.9377   -1.4131   -1.3810 C   0  0  0  0  0  0  0  0  0  0  0  0
    0.2510   -0.6813    0.8330 H   0  0  0  0  0  0  0  0  0  0  0  0
    0.0579   -0.3574   -0.8955 H   0  0  0  0  0  0  0  0  0  0  0  0
    1.0394    0.7444    0.1481 H   0  0  0  0  0  0  0  0  0  0  0  0
    1.5559    0.8933   -2.1364 H   0  0  0  0  0  0  0  0  0  0  0  0
    2.2836    3.3181   -4.7225 H   0  0  0  0  0  0  0  0  0  0  0  0
    2.1577    2.9988   -2.9895 H   0  0  0  0  0  0  0  0  0  0  0  0
    1.2507    1.9875   -4.1811 H   0  0  0  0  0  0  0  0  0  0  0  0
    5.2981    0.1813   -4.0499 H   0  0  0  0  0  0  0  0  0  0  0  0
    7.2264    0.1879   -2.9075 H   0  0  0  0  0  0  0  0  0  0  0  0
    9.5073   -0.6002   -2.7367 H   0  0  0  0  0  0  0  0  0  0  0  0
    5.7280   -3.6621   -1.5619 H   0  0  0  0  0  0  0  0  0  0  0  0
    7.7720   -5.3650   -0.8622 H   0  0  0  0  0  0  0  0  0  0  0  0
   11.3495   -1.7998   -2.5496 H   0  0  0  0  0  0  0  0  0  0  0  0
   12.1498   -5.2309   -1.1653 H   0  0  0  0  0  0  0  0  0  0  0  0
   13.8416   -6.8854   -0.8213 H   0  0  0  0  0  0  0  0  0  0  0  0
   15.4199   -6.1753   -0.4390 H   0  0  0  0  0  0  0  0  0  0  0  0
   15.0956   -6.8411   -2.0567 H   0  0  0  0  0  0  0  0  0  0  0  0
   16.8789   -3.9051   -1.5661 H   0  0  0  0  0  0  0  0  0  0  0  0
   16.5794   -2.7385   -2.8280 H   0  0  0  0  0  0  0  0  0  0  0  0
   16.2382   -4.6141   -4.4883 H   0  0  0  0  0  0  0  0  0  0  0  0
   16.6829   -5.7683   -3.2067 H   0  0  0  0  0  0  0  0  0  0  0  0
   18.0304   -6.0878   -5.0724 H   0  0  0  0  0  0  0  0  0  0  0  0
   15.1043   -1.3044   -3.3339 H   0  0  0  0  0  0  0  0  0  0  0  0
   13.7377   -0.7319   -2.3756 H   0  0  0  0  0  0  0  0  0  0  0  0
   13.4731   -1.4068   -3.9972 H   0  0  0  0  0  0  0  0  0  0  0  0
    4.1249   -2.1829   -0.6361 H   0  0  0  0  0  0  0  0  0  0  0  0
  1  2  1  0  0  0  0
  1 34  1  0  0  0  0
  1 35  1  0  0  0  0
  1 36  1  0  0  0  0
  2  3  1  0  0  0  0
  3  4  1  0  0  0  0
  3 33  2  0  0  0  0
  4  5  2  0  0  0  0
  4 37  1  0  0  0  0
  5  6  1  0  0  0  0
  5  8  1  0  0  0  0
  6  7  1  0  0  0  0
  7 38  1  0  0  0  0
  7 39  1  0  0  0  0
  7 40  1  0  0  0  0
  8  9  2  0  0  0  0
  8 41  1  0  0  0  0
  9 10  1  0  0  0  0
  9 33  1  0  0  0  0
 10 11  1  0  0  0  0
 10 15  2  0  0  0  0
 11 12  2  0  0  0  0
 11 42  1  0  0  0  0
 12 13  1  0  0  0  0
 12 43  1  0  0  0  0
 13 14  2  0  0  0  0
 13 19  1  0  0  0  0
 14 15  1  0  0  0  0
 14 16  1  0  0  0  0
 15 44  1  0  0  0  0
 16 17  1  0  0  0  0
 16 45  1  0  0  0  0
 17 18  2  0  0  0  0
 17 19  1  0  0  0  0
 19 20  2  0  0  0  0
 20 21  1  0  0  0  0
 20 46  1  0  0  0  0
 21 22  1  0  0  0  0
 21 31  2  0  0  0  0
 22 23  1  0  0  0  0
 22 47  1  0  0  0  0
 23 24  1  0  0  0  0
 23 25  2  0  0  0  0
 24 48  1  0  0  0  0
 24 49  1  0  0  0  0
 24 50  1  0  0  0  0
 25 26  1  0  0  0  0
 25 31  1  0  0  0  0
 26 27  1  0  0  0  0
 26 51  1  0  0  0  0
 26 52  1  0  0  0  0
 27 28  1  0  0  0  0
 27 53  1  0  0  0  0
 27 54  1  0  0  0  0
 28 29  2  0  0  0  0
 28 30  1  0  0  0  0
 30 55  1  0  0  0  0
 31 32  1  0  0  0  0
 32 56  1  0  0  0  0
 32 57  1  0  0  0  0
 32 58  1  0  0  0  0
 33 59  1  0  0  0  0
M  END
$$$$
