CHEMBL2088092
 OpenBabel04072215363D

 45 47  0  0  0  0  0  0  0  0999 V2000
    4.5105   -0.1772   -3.9743 C   0  0  0  0  0  0  0  0  0  0  0  0
    3.7062    0.0834   -2.7634 C   0  0  0  0  0  0  0  0  0  0  0  0
    3.2177    1.2547   -2.2302 C   0  0  0  0  0  0  0  0  0  0  0  0
    2.5366    0.8866   -1.0465 C   0  0  0  0  0  0  0  0  0  0  0  0
    1.9435    1.7168   -0.1629 N   0  0  0  0  0  0  0  0  0  0  0  0
    2.0730    3.1113   -0.0078 C   0  0  0  0  0  0  0  0  0  0  0  0
    2.6499    3.8293   -0.9919 N   0  0  0  0  0  0  0  0  0  0  0  0
    2.8581    5.1354   -0.8209 C   0  0  0  0  0  0  0  0  0  0  0  0
    3.5541    5.7375   -1.8445 N   0  0  0  0  0  0  0  0  0  0  0  0
    3.2587    7.1308   -2.1037 C   0  0  0  0  0  0  0  0  0  0  0  0
    4.0822    7.6506   -3.2264 C   0  0  0  0  0  0  0  0  0  0  0  0
    5.4355    7.7099   -3.4454 C   0  0  0  0  0  0  0  0  0  0  0  0
    5.5616    8.2401   -4.7554 C   0  0  0  0  0  0  0  0  0  0  0  0
    6.8473    8.4852   -5.5225 C   0  0  0  0  0  0  0  0  0  0  0  0
    7.5979    7.1525   -5.7260 C   0  0  0  0  0  0  0  0  0  0  0  0
    6.5910    9.1038   -6.9141 C   0  0  0  0  0  0  0  0  0  0  0  0
    7.7521    9.4495   -4.7314 C   0  0  0  0  0  0  0  0  0  0  0  0
    4.3558    8.5037   -5.2754 N   0  0  0  0  0  0  0  0  0  0  0  0
    3.4310    8.1290   -4.3163 O   0  0  0  0  0  0  0  0  0  0  0  0
    2.4866    5.8118    0.2676 N   0  0  0  0  0  0  0  0  0  0  0  0
    1.8989    5.0886    1.2435 C   0  0  0  0  0  0  0  0  0  0  0  0
    1.6663    3.7330    1.1613 C   0  0  0  0  0  0  0  0  0  0  0  0
    0.8826    2.8132    2.6110 Br  0  0  0  0  0  0  0  0  0  0  0  0
    2.5642   -0.4390   -0.8755 N   0  0  0  0  0  0  0  0  0  0  0  0
    3.2965   -0.8937   -1.9061 N   0  0  0  0  0  0  0  0  0  0  0  0
    4.6687    0.7460   -4.5440 H   0  0  0  0  0  0  0  0  0  0  0  0
    4.0067   -0.8943   -4.6307 H   0  0  0  0  0  0  0  0  0  0  0  0
    5.4935   -0.5784   -3.7067 H   0  0  0  0  0  0  0  0  0  0  0  0
    3.3564    2.2408   -2.6447 H   0  0  0  0  0  0  0  0  0  0  0  0
    1.4924    1.2615    0.6212 H   0  0  0  0  0  0  0  0  0  0  0  0
    3.4740    5.1323   -2.6532 H   0  0  0  0  0  0  0  0  0  0  0  0
    3.4765    7.7404   -1.2186 H   0  0  0  0  0  0  0  0  0  0  0  0
    2.1940    7.2544   -2.3383 H   0  0  0  0  0  0  0  0  0  0  0  0
    6.2133    7.3840   -2.7729 H   0  0  0  0  0  0  0  0  0  0  0  0
    7.0035    6.4485   -6.3205 H   0  0  0  0  0  0  0  0  0  0  0  0
    7.8209    6.6646   -4.7699 H   0  0  0  0  0  0  0  0  0  0  0  0
    8.5505    7.3082   -6.2448 H   0  0  0  0  0  0  0  0  0  0  0  0
    5.9935    8.4365   -7.5464 H   0  0  0  0  0  0  0  0  0  0  0  0
    7.5331    9.2982   -7.4396 H   0  0  0  0  0  0  0  0  0  0  0  0
    6.0543   10.0570   -6.8367 H   0  0  0  0  0  0  0  0  0  0  0  0
    8.0078    9.0445   -3.7451 H   0  0  0  0  0  0  0  0  0  0  0  0
    7.2571   10.4145   -4.5707 H   0  0  0  0  0  0  0  0  0  0  0  0
    8.6925    9.6381   -5.2612 H   0  0  0  0  0  0  0  0  0  0  0  0
    1.6310    5.6578    2.1290 H   0  0  0  0  0  0  0  0  0  0  0  0
    3.4847   -1.8900   -1.9571 H   0  0  0  0  0  0  0  0  0  0  0  0
  1  2  1  0  0  0  0
  1 26  1  0  0  0  0
  1 27  1  0  0  0  0
  1 28  1  0  0  0  0
  2  3  2  0  0  0  0
  2 25  1  0  0  0  0
  3  4  1  0  0  0  0
  3 29  1  0  0  0  0
  4  5  1  0  0  0  0
  4 24  2  0  0  0  0
  5  6  1  0  0  0  0
  5 30  1  0  0  0  0
  6  7  1  0  0  0  0
  6 22  2  0  0  0  0
  7  8  2  0  0  0  0
  8  9  1  0  0  0  0
  8 20  1  0  0  0  0
  9 10  1  0  0  0  0
  9 31  1  0  0  0  0
 10 11  1  0  0  0  0
 10 32  1  0  0  0  0
 10 33  1  0  0  0  0
 11 12  2  0  0  0  0
 11 19  1  0  0  0  0
 12 13  1  0  0  0  0
 12 34  1  0  0  0  0
 13 14  1  0  0  0  0
 13 18  2  0  0  0  0
 14 15  1  0  0  0  0
 14 16  1  0  0  0  0
 14 17  1  0  0  0  0
 15 35  1  0  0  0  0
 15 36  1  0  0  0  0
 15 37  1  0  0  0  0
 16 38  1  0  0  0  0
 16 39  1  0  0  0  0
 16 40  1  0  0  0  0
 17 41  1  0  0  0  0
 17 42  1  0  0  0  0
 17 43  1  0  0  0  0
 18 19  1  0  0  0  0
 20 21  2  0  0  0  0
 21 22  1  0  0  0  0
 21 44  1  0  0  0  0
 22 23  1  0  0  0  0
 24 25  1  0  0  0  0
 25 45  1  0  0  0  0
M  END
$$$$
