CHEMBL3612230
 OpenBabel04072215363D

 41 44  0  0  0  0  0  0  0  0999 V2000
    2.5664   -0.4556   -1.3742 O   0  0  0  0  0  0  0  0  0  0  0  0
    2.1866    0.2645   -0.4589 C   0  0  0  0  0  0  0  0  0  0  0  0
    0.8530    0.4948   -0.1500 N   0  0  0  0  0  0  0  0  0  0  0  0
   -0.2571   -0.0095   -0.8693 C   0  0  0  0  0  0  0  0  0  0  0  0
   -0.1663   -1.0435   -1.8087 C   0  0  0  0  0  0  0  0  0  0  0  0
   -1.2817   -1.4327   -2.5540 C   0  0  0  0  0  0  0  0  0  0  0  0
   -2.4965   -0.8013   -2.3497 C   0  0  0  0  0  0  0  0  0  0  0  0
   -3.5577   -1.1499   -3.0865 F   0  0  0  0  0  0  0  0  0  0  0  0
   -2.6229    0.1976   -1.3910 C   0  0  0  0  0  0  0  0  0  0  0  0
   -1.5059    0.5869   -0.6434 C   0  0  0  0  0  0  0  0  0  0  0  0
    3.0326    0.9852    0.3710 N   0  0  0  0  0  0  0  0  0  0  0  0
    4.4387    1.1029    0.2462 C   0  0  0  0  0  0  0  0  0  0  0  0
    5.1780    0.5093   -0.7815 C   0  0  0  0  0  0  0  0  0  0  0  0
    6.5648    0.6524   -0.8431 C   0  0  0  0  0  0  0  0  0  0  0  0
    7.2289    1.4121    0.1135 C   0  0  0  0  0  0  0  0  0  0  0  0
    6.5043    2.0475    1.1243 C   0  0  0  0  0  0  0  0  0  0  0  0
    7.3545    3.0472    2.3308 S   0  0  0  0  0  0  0  0  0  0  0  0
    7.2480    4.6608    1.5861 C   0  0  0  0  0  0  0  0  0  0  0  0
    7.9043    4.9561    0.3903 C   0  0  0  0  0  0  0  0  0  0  0  0
    7.8360    6.2390   -0.1161 C   0  0  0  0  0  0  0  0  0  0  0  0
    7.1800    7.2621    0.4553 N   0  0  0  0  0  0  0  0  0  0  0  0
    6.5410    6.9795    1.6217 C   0  0  0  0  0  0  0  0  0  0  0  0
    5.7999    7.9318    2.3808 C   0  0  0  0  0  0  0  0  0  0  0  0
    5.2504    7.3869    3.5166 C   0  0  0  0  0  0  0  0  0  0  0  0
    5.6291    5.7309    3.6766 S   0  0  0  0  0  0  0  0  0  0  0  0
    6.5473    5.7113    2.2119 C   0  0  0  0  0  0  0  0  0  0  0  0
    5.1146    1.8776    1.1983 C   0  0  0  0  0  0  0  0  0  0  0  0
    0.6599    1.2376    0.5040 H   0  0  0  0  0  0  0  0  0  0  0  0
    0.7646   -1.5715   -1.9920 H   0  0  0  0  0  0  0  0  0  0  0  0
   -1.1944   -2.2176   -3.3013 H   0  0  0  0  0  0  0  0  0  0  0  0
   -3.5843    0.6778   -1.2437 H   0  0  0  0  0  0  0  0  0  0  0  0
   -1.6220    1.3810    0.0901 H   0  0  0  0  0  0  0  0  0  0  0  0
    2.6172    1.4266    1.1769 H   0  0  0  0  0  0  0  0  0  0  0  0
    4.7104   -0.0856   -1.5598 H   0  0  0  0  0  0  0  0  0  0  0  0
    7.1191    0.1656   -1.6418 H   0  0  0  0  0  0  0  0  0  0  0  0
    8.3103    1.5053    0.0588 H   0  0  0  0  0  0  0  0  0  0  0  0
    8.4731    4.2021   -0.1429 H   0  0  0  0  0  0  0  0  0  0  0  0
    8.3442    6.4892   -1.0448 H   0  0  0  0  0  0  0  0  0  0  0  0
    5.6845    8.9690    2.0942 H   0  0  0  0  0  0  0  0  0  0  0  0
    4.6455    7.8842    4.2626 H   0  0  0  0  0  0  0  0  0  0  0  0
    4.5661    2.3568    2.0041 H   0  0  0  0  0  0  0  0  0  0  0  0
  1  2  2  0  0  0  0
  2  3  1  0  0  0  0
  2 11  1  0  0  0  0
  3  4  1  0  0  0  0
  3 28  1  0  0  0  0
  4  5  1  0  0  0  0
  4 10  2  0  0  0  0
  5  6  2  0  0  0  0
  5 29  1  0  0  0  0
  6  7  1  0  0  0  0
  6 30  1  0  0  0  0
  7  8  1  0  0  0  0
  7  9  2  0  0  0  0
  9 10  1  0  0  0  0
  9 31  1  0  0  0  0
 10 32  1  0  0  0  0
 11 12  1  0  0  0  0
 11 33  1  0  0  0  0
 12 13  1  0  0  0  0
 12 27  2  0  0  0  0
 13 14  2  0  0  0  0
 13 34  1  0  0  0  0
 14 15  1  0  0  0  0
 14 35  1  0  0  0  0
 15 16  2  0  0  0  0
 15 36  1  0  0  0  0
 16 17  1  0  0  0  0
 16 27  1  0  0  0  0
 17 18  1  0  0  0  0
 18 19  1  0  0  0  0
 18 26  2  0  0  0  0
 19 20  2  0  0  0  0
 19 37  1  0  0  0  0
 20 21  1  0  0  0  0
 20 38  1  0  0  0  0
 21 22  2  0  0  0  0
 22 23  1  0  0  0  0
 22 26  1  0  0  0  0
 23 24  2  0  0  0  0
 23 39  1  0  0  0  0
 24 25  1  0  0  0  0
 24 40  1  0  0  0  0
 25 26  1  0  0  0  0
 27 41  1  0  0  0  0
M  END
$$$$
