CHEMBL2113176
 OpenBabel04072215363D

 56 59  0  0  0  0  0  0  0  0999 V2000
    1.0943    0.7973   -0.4636 C   0  0  0  0  0  0  0  0  0  0  0  0
    2.3486    0.1935   -0.2148 O   0  0  0  0  0  0  0  0  0  0  0  0
    2.8310   -0.5906   -1.3109 C   0  0  0  0  0  0  0  0  0  0  0  0
    4.1470   -1.1833   -0.8258 C   0  0  0  0  0  0  0  0  0  0  0  0
    4.8105   -1.9725   -1.7905 O   0  0  0  0  0  0  0  0  0  0  0  0
    6.1682   -2.1413   -1.6564 C   0  0  0  0  0  0  0  0  0  0  0  0
    6.7415   -2.4733   -2.9075 C   0  0  0  0  0  0  0  0  0  0  0  0
    8.1156   -2.6310   -3.1147 C   0  0  0  0  0  0  0  0  0  0  0  0
    8.5804   -2.8688   -4.3485 N   0  0  0  0  0  0  0  0  0  0  0  0
    9.9074   -2.9746   -4.4823 C   0  0  0  0  0  0  0  0  0  0  0  0
   10.8068   -2.8959   -3.4976 N   0  0  0  0  0  0  0  0  0  0  0  0
   10.3264   -2.6827   -2.2590 C   0  0  0  0  0  0  0  0  0  0  0  0
   11.2346   -2.6308   -1.1618 N   0  0  0  0  0  0  0  0  0  0  0  0
   12.6151   -2.5883   -1.3539 C   0  0  0  0  0  0  0  0  0  0  0  0
   13.2643   -1.7481   -2.1684 C   0  0  0  0  0  0  0  0  0  0  0  0
   14.7235   -1.7710   -2.3637 C   0  0  0  0  0  0  0  0  0  0  0  0
   15.2331   -0.9665   -3.1342 O   0  0  0  0  0  0  0  0  0  0  0  0
   15.5075   -2.7963   -1.6048 C   0  0  0  0  0  0  0  0  0  0  0  0
   16.8739   -2.9679   -1.7563 O   0  0  0  0  0  0  0  0  0  0  0  0
   17.6348   -1.8443   -2.2097 C   0  0  0  0  0  0  0  0  0  0  0  0
   19.0686   -2.0093   -1.7787 C   0  0  0  0  0  0  0  0  0  0  0  0
   19.8530   -0.8922   -1.4679 C   0  0  0  0  0  0  0  0  0  0  0  0
   21.1735   -1.0643   -1.0628 C   0  0  0  0  0  0  0  0  0  0  0  0
   21.6766   -2.3524   -0.9997 C   0  0  0  0  0  0  0  0  0  0  0  0
   20.9642   -3.4518   -1.3206 N   0  0  0  0  0  0  0  0  0  0  0  0
   19.6830   -3.2560   -1.7064 C   0  0  0  0  0  0  0  0  0  0  0  0
   14.8684   -3.6102   -0.7574 C   0  0  0  0  0  0  0  0  0  0  0  0
   13.4162   -3.5483   -0.5335 C   0  0  0  0  0  0  0  0  0  0  0  0
   12.8693   -4.2728    0.2935 O   0  0  0  0  0  0  0  0  0  0  0  0
    8.9564   -2.5046   -2.0137 C   0  0  0  0  0  0  0  0  0  0  0  0
    8.3958   -2.1785   -0.7565 C   0  0  0  0  0  0  0  0  0  0  0  0
    7.0174   -1.9917   -0.5563 C   0  0  0  0  0  0  0  0  0  0  0  0
    6.7916   -1.5380    0.7099 O   0  0  0  0  0  0  0  0  0  0  0  0
    5.7264   -2.0304    1.5020 C   0  0  0  0  0  0  0  0  0  0  0  0
    0.8256    1.3807    0.4220 H   0  0  0  0  0  0  0  0  0  0  0  0
    0.3277    0.0349   -0.6239 H   0  0  0  0  0  0  0  0  0  0  0  0
    1.1572    1.4713   -1.3211 H   0  0  0  0  0  0  0  0  0  0  0  0
    2.9778    0.0290   -2.2012 H   0  0  0  0  0  0  0  0  0  0  0  0
    2.1181   -1.3885   -1.5523 H   0  0  0  0  0  0  0  0  0  0  0  0
    3.8593   -1.8339   -0.0008 H   0  0  0  0  0  0  0  0  0  0  0  0
    4.7807   -0.3614   -0.4766 H   0  0  0  0  0  0  0  0  0  0  0  0
    6.0915   -2.5633   -3.7751 H   0  0  0  0  0  0  0  0  0  0  0  0
   10.2913   -3.1399   -5.4839 H   0  0  0  0  0  0  0  0  0  0  0  0
   10.9843   -3.3531   -0.4837 H   0  0  0  0  0  0  0  0  0  0  0  0
   12.7291   -1.0140   -2.7558 H   0  0  0  0  0  0  0  0  0  0  0  0
   17.2500   -0.9223   -1.7582 H   0  0  0  0  0  0  0  0  0  0  0  0
   17.5961   -1.7840   -3.3035 H   0  0  0  0  0  0  0  0  0  0  0  0
   19.4385    0.1107   -1.5322 H   0  0  0  0  0  0  0  0  0  0  0  0
   21.7928   -0.2145   -0.8005 H   0  0  0  0  0  0  0  0  0  0  0  0
   22.6986   -2.5393   -0.6800 H   0  0  0  0  0  0  0  0  0  0  0  0
   19.1441   -4.1672   -1.9581 H   0  0  0  0  0  0  0  0  0  0  0  0
   15.4020   -4.3689   -0.1939 H   0  0  0  0  0  0  0  0  0  0  0  0
    9.0606   -2.0189    0.0919 H   0  0  0  0  0  0  0  0  0  0  0  0
    6.1056   -2.2748    2.4987 H   0  0  0  0  0  0  0  0  0  0  0  0
    5.2415   -2.9219    1.0963 H   0  0  0  0  0  0  0  0  0  0  0  0
    5.0179   -1.2086    1.6525 H   0  0  0  0  0  0  0  0  0  0  0  0
  1  2  1  0  0  0  0
  1 35  1  0  0  0  0
  1 36  1  0  0  0  0
  1 37  1  0  0  0  0
  2  3  1  0  0  0  0
  3  4  1  0  0  0  0
  3 38  1  0  0  0  0
  3 39  1  0  0  0  0
  4  5  1  0  0  0  0
  4 40  1  0  0  0  0
  4 41  1  0  0  0  0
  5  6  1  0  0  0  0
  6  7  1  0  0  0  0
  6 32  2  0  0  0  0
  7  8  2  0  0  0  0
  7 42  1  0  0  0  0
  8  9  1  0  0  0  0
  8 30  1  0  0  0  0
  9 10  2  0  0  0  0
 10 11  1  0  0  0  0
 10 43  1  0  0  0  0
 11 12  2  0  0  0  0
 12 13  1  0  0  0  0
 12 30  1  0  0  0  0
 13 14  1  0  0  0  0
 13 44  1  0  0  0  0
 14 15  2  0  0  0  0
 14 28  1  0  0  0  0
 15 16  1  0  0  0  0
 15 45  1  0  0  0  0
 16 17  2  0  0  0  0
 16 18  1  0  0  0  0
 18 19  1  0  0  0  0
 18 27  2  0  0  0  0
 19 20  1  0  0  0  0
 20 21  1  0  0  0  0
 20 46  1  0  0  0  0
 20 47  1  0  0  0  0
 21 22  1  0  0  0  0
 21 26  2  0  0  0  0
 22 23  2  0  0  0  0
 22 48  1  0  0  0  0
 23 24  1  0  0  0  0
 23 49  1  0  0  0  0
 24 25  2  0  0  0  0
 24 50  1  0  0  0  0
 25 26  1  0  0  0  0
 26 51  1  0  0  0  0
 27 28  1  0  0  0  0
 27 52  1  0  0  0  0
 28 29  2  0  0  0  0
 30 31  2  0  0  0  0
 31 32  1  0  0  0  0
 31 53  1  0  0  0  0
 32 33  1  0  0  0  0
 33 34  1  0  0  0  0
 34 54  1  0  0  0  0
 34 55  1  0  0  0  0
 34 56  1  0  0  0  0
M  END
$$$$
