CHEMBL267293
 OpenBabel04072215363D

 48 51  0  0  0  0  0  0  0  0999 V2000
    2.6170    0.5900    0.0051 C   0  0  0  0  0  0  0  0  0  0  0  0
    1.1572    0.3060    0.0287 C   0  0  0  0  0  0  0  0  0  0  0  0
    0.7354   -1.0031    0.0281 N   0  0  0  0  0  0  0  0  0  0  0  0
   -0.6298   -1.0833    0.0134 C   0  0  0  0  0  0  0  0  0  0  0  0
   -1.3173   -2.3237    0.0165 C   0  0  0  0  0  0  0  0  0  0  0  0
   -0.8345   -3.5746    0.0240 C   0  0  0  0  0  0  0  0  0  0  0  0
    0.5769   -4.1118    0.0273 C   0  0  0  0  0  0  0  0  0  0  0  0
    1.6211   -3.4907    0.0243 O   0  0  0  0  0  0  0  0  0  0  0  0
    0.4372   -5.4948    0.0346 N   0  0  0  0  0  0  0  0  0  0  0  0
   -0.9014   -5.8734    0.0395 C   0  0  0  0  0  0  0  0  0  0  0  0
   -1.4047   -7.1593    0.0516 C   0  0  0  0  0  0  0  0  0  0  0  0
   -2.7944   -7.3003    0.0573 C   0  0  0  0  0  0  0  0  0  0  0  0
   -3.6242   -6.1702    0.0500 C   0  0  0  0  0  0  0  0  0  0  0  0
   -4.9529   -6.3357    0.0563 F   0  0  0  0  0  0  0  0  0  0  0  0
   -3.1044   -4.8797    0.0372 C   0  0  0  0  0  0  0  0  0  0  0  0
   -1.7271   -4.7454    0.0322 C   0  0  0  0  0  0  0  0  0  0  0  0
   -1.1114    0.2187   -0.0064 C   0  0  0  0  0  0  0  0  0  0  0  0
   -2.5443    0.6488   -0.0165 C   0  0  0  0  0  0  0  0  0  0  0  0
    0.0233    1.1121   -0.0058 C   0  0  0  0  0  0  0  0  0  0  0  0
   -0.0683    2.5732   -0.0678 C   0  0  0  0  0  0  0  0  0  0  0  0
   -1.0153    3.1480   -0.5991 O   0  0  0  0  0  0  0  0  0  0  0  0
    0.9299    3.2725    0.5699 N   0  0  0  0  0  0  0  0  0  0  0  0
    0.9352    4.7253    0.6134 C   0  0  0  0  0  0  0  0  0  0  0  0
   -0.2677    5.3202    1.3487 C   0  0  0  0  0  0  0  0  0  0  0  0
   -0.2397    6.7649    1.3609 N   0  0  0  0  0  0  0  0  0  0  0  0
   -1.1623    7.6205    0.8451 C   0  0  0  0  0  0  0  0  0  0  0  0
   -0.7901    8.8577    1.0808 N   0  0  0  0  0  0  0  0  0  0  0  0
    0.3840    8.6998    1.7612 C   0  0  0  0  0  0  0  0  0  0  0  0
    0.7608    7.4339    1.9634 N   0  0  0  0  0  0  0  0  0  0  0  0
    3.2023   -0.3366   -0.0285 H   0  0  0  0  0  0  0  0  0  0  0  0
    2.9269    1.1272    0.9054 H   0  0  0  0  0  0  0  0  0  0  0  0
    2.8813    1.1821   -0.8757 H   0  0  0  0  0  0  0  0  0  0  0  0
    1.3647   -1.8005    0.0211 H   0  0  0  0  0  0  0  0  0  0  0  0
   -2.3990   -2.2193    0.0123 H   0  0  0  0  0  0  0  0  0  0  0  0
    1.2280   -6.1216    0.0379 H   0  0  0  0  0  0  0  0  0  0  0  0
   -0.7578   -8.0288    0.0575 H   0  0  0  0  0  0  0  0  0  0  0  0
   -3.2516   -8.2863    0.0674 H   0  0  0  0  0  0  0  0  0  0  0  0
   -3.7757   -4.0304    0.0327 H   0  0  0  0  0  0  0  0  0  0  0  0
   -3.2343   -0.1985    0.0223 H   0  0  0  0  0  0  0  0  0  0  0  0
   -2.7730    1.2124   -0.9263 H   0  0  0  0  0  0  0  0  0  0  0  0
   -2.7556    1.2798    0.8533 H   0  0  0  0  0  0  0  0  0  0  0  0
    1.6584    2.7613    1.0451 H   0  0  0  0  0  0  0  0  0  0  0  0
    0.9708    5.0906   -0.4195 H   0  0  0  0  0  0  0  0  0  0  0  0
    1.8710    5.0210    1.1010 H   0  0  0  0  0  0  0  0  0  0  0  0
   -0.2958    4.9847    2.3912 H   0  0  0  0  0  0  0  0  0  0  0  0
   -1.2146    5.0232    0.8875 H   0  0  0  0  0  0  0  0  0  0  0  0
   -2.0583    7.3026    0.3286 H   0  0  0  0  0  0  0  0  0  0  0  0
    0.9782    9.5301    2.1196 H   0  0  0  0  0  0  0  0  0  0  0  0
  1  2  1  0  0  0  0
  1 30  1  0  0  0  0
  1 31  1  0  0  0  0
  1 32  1  0  0  0  0
  2  3  1  0  0  0  0
  2 19  2  0  0  0  0
  3  4  1  0  0  0  0
  3 33  1  0  0  0  0
  4  5  1  0  0  0  0
  4 17  2  0  0  0  0
  5  6  2  0  0  0  0
  5 34  1  0  0  0  0
  6  7  1  0  0  0  0
  6 16  1  0  0  0  0
  7  8  2  0  0  0  0
  7  9  1  0  0  0  0
  9 10  1  0  0  0  0
  9 35  1  0  0  0  0
 10 11  1  0  0  0  0
 10 16  2  0  0  0  0
 11 12  2  0  0  0  0
 11 36  1  0  0  0  0
 12 13  1  0  0  0  0
 12 37  1  0  0  0  0
 13 14  1  0  0  0  0
 13 15  2  0  0  0  0
 15 16  1  0  0  0  0
 15 38  1  0  0  0  0
 17 18  1  0  0  0  0
 17 19  1  0  0  0  0
 18 39  1  0  0  0  0
 18 40  1  0  0  0  0
 18 41  1  0  0  0  0
 19 20  1  0  0  0  0
 20 21  2  0  0  0  0
 20 22  1  0  0  0  0
 22 23  1  0  0  0  0
 22 42  1  0  0  0  0
 23 24  1  0  0  0  0
 23 43  1  0  0  0  0
 23 44  1  0  0  0  0
 24 25  1  0  0  0  0
 24 45  1  0  0  0  0
 24 46  1  0  0  0  0
 25 26  1  0  0  0  0
 25 29  1  0  0  0  0
 26 27  2  0  0  0  0
 26 47  1  0  0  0  0
 27 28  1  0  0  0  0
 28 29  2  0  0  0  0
 28 48  1  0  0  0  0
M  END
$$$$
