CHEMBL3907574
 OpenBabel04072215373D

 51 55  0  0  0  0  0  0  0  0999 V2000
    1.4812    0.3261   -0.8226 O   0  0  0  0  0  0  0  0  0  0  0  0
    2.6422    0.0041   -0.5852 C   0  0  0  0  0  0  0  0  0  0  0  0
    3.1311   -1.2839   -0.4093 N   0  0  0  0  0  0  0  0  0  0  0  0
    2.3482   -2.4587   -0.5042 C   0  0  0  0  0  0  0  0  0  0  0  0
    1.0790   -2.4546   -1.0932 C   0  0  0  0  0  0  0  0  0  0  0  0
    0.2530   -3.5759   -1.0423 C   0  0  0  0  0  0  0  0  0  0  0  0
    0.7178   -4.7339   -0.4277 C   0  0  0  0  0  0  0  0  0  0  0  0
    2.0419   -4.8125    0.0067 C   0  0  0  0  0  0  0  0  0  0  0  0
    2.6156   -5.9642    0.4933 O   0  0  0  0  0  0  0  0  0  0  0  0
    2.2402   -7.2006    0.0009 C   0  0  0  0  0  0  0  0  0  0  0  0
    1.6544   -7.4381   -1.2528 C   0  0  0  0  0  0  0  0  0  0  0  0
    1.1928   -8.7181   -1.6239 C   0  0  0  0  0  0  0  0  0  0  0  0
    1.5349   -9.7993   -0.7948 C   0  0  0  0  0  0  0  0  0  0  0  0
    1.4152  -11.2296   -0.7560 C   0  0  0  0  0  0  0  0  0  0  0  0
    0.3949  -12.0291   -0.0855 C   0  0  0  0  0  0  0  0  0  0  0  0
   -0.4592  -11.5532    0.8415 C   0  0  0  0  0  0  0  0  0  0  0  0
   -0.6381  -12.3005    2.0537 C   0  0  0  0  0  0  0  0  0  0  0  0
   -1.4111  -11.9914    3.1693 C   0  0  0  0  0  0  0  0  0  0  0  0
   -1.0733  -12.8952    4.2091 C   0  0  0  0  0  0  0  0  0  0  0  0
   -0.1282  -13.7349    3.6814 C   0  0  0  0  0  0  0  0  0  0  0  0
    0.1206  -13.4085    2.3908 O   0  0  0  0  0  0  0  0  0  0  0  0
    2.6594  -11.6654   -0.4542 N   0  0  0  0  0  0  0  0  0  0  0  0
    3.0289  -10.7438    0.4617 N   0  0  0  0  0  0  0  0  0  0  0  0
    2.4089   -9.5393    0.2584 C   0  0  0  0  0  0  0  0  0  0  0  0
    2.6243   -8.2765    0.8028 C   0  0  0  0  0  0  0  0  0  0  0  0
    2.8452   -3.6624    0.0094 C   0  0  0  0  0  0  0  0  0  0  0  0
    3.6155    1.1098   -0.4047 C   0  0  0  0  0  0  0  0  0  0  0  0
    3.1377    2.3093    0.1439 C   0  0  0  0  0  0  0  0  0  0  0  0
    3.9752    3.4080    0.2689 C   0  0  0  0  0  0  0  0  0  0  0  0
    5.3000    3.3203   -0.1628 C   0  0  0  0  0  0  0  0  0  0  0  0
    5.7771    2.1296   -0.7201 C   0  0  0  0  0  0  0  0  0  0  0  0
    4.9380    1.0185   -0.8426 C   0  0  0  0  0  0  0  0  0  0  0  0
    4.0577   -1.3779   -0.0173 H   0  0  0  0  0  0  0  0  0  0  0  0
    0.6880   -1.5815   -1.6026 H   0  0  0  0  0  0  0  0  0  0  0  0
   -0.7355   -3.5434   -1.4708 H   0  0  0  0  0  0  0  0  0  0  0  0
    0.0448   -5.5832   -0.3461 H   0  0  0  0  0  0  0  0  0  0  0  0
    1.5512   -6.6293   -1.9732 H   0  0  0  0  0  0  0  0  0  0  0  0
    0.7138   -8.8660   -2.5878 H   0  0  0  0  0  0  0  0  0  0  0  0
    0.6772  -13.0823   -0.0228 H   0  0  0  0  0  0  0  0  0  0  0  0
   -0.7462  -10.5077    0.8641 H   0  0  0  0  0  0  0  0  0  0  0  0
   -2.0962  -11.1588    3.2426 H   0  0  0  0  0  0  0  0  0  0  0  0
   -1.4495  -12.9140    5.2226 H   0  0  0  0  0  0  0  0  0  0  0  0
    0.4485  -14.5605    4.0772 H   0  0  0  0  0  0  0  0  0  0  0  0
    3.8081  -10.9528    1.0716 H   0  0  0  0  0  0  0  0  0  0  0  0
    3.1831   -8.1323    1.7198 H   0  0  0  0  0  0  0  0  0  0  0  0
    3.8419   -3.7175    0.4361 H   0  0  0  0  0  0  0  0  0  0  0  0
    2.0991    2.3902    0.4594 H   0  0  0  0  0  0  0  0  0  0  0  0
    3.5989    4.3407    0.6870 H   0  0  0  0  0  0  0  0  0  0  0  0
    5.9526    4.1851   -0.0856 H   0  0  0  0  0  0  0  0  0  0  0  0
    6.8023    2.0788   -1.0820 H   0  0  0  0  0  0  0  0  0  0  0  0
    5.3143    0.1193   -1.3244 H   0  0  0  0  0  0  0  0  0  0  0  0
  1  2  2  0  0  0  0
  2  3  1  0  0  0  0
  2 27  1  0  0  0  0
  3  4  1  0  0  0  0
  3 33  1  0  0  0  0
  4  5  1  0  0  0  0
  4 26  2  0  0  0  0
  5  6  2  0  0  0  0
  5 34  1  0  0  0  0
  6  7  1  0  0  0  0
  6 35  1  0  0  0  0
  7  8  2  0  0  0  0
  7 36  1  0  0  0  0
  8  9  1  0  0  0  0
  8 26  1  0  0  0  0
  9 10  1  0  0  0  0
 10 11  1  0  0  0  0
 10 25  2  0  0  0  0
 11 12  2  0  0  0  0
 11 37  1  0  0  0  0
 12 13  1  0  0  0  0
 12 38  1  0  0  0  0
 13 14  1  0  0  0  0
 13 24  2  0  0  0  0
 14 15  1  0  0  0  0
 14 22  2  0  0  0  0
 15 16  2  0  0  0  0
 15 39  1  0  0  0  0
 16 17  1  0  0  0  0
 16 40  1  0  0  0  0
 17 18  2  0  0  0  0
 17 21  1  0  0  0  0
 18 19  1  0  0  0  0
 18 41  1  0  0  0  0
 19 20  2  0  0  0  0
 19 42  1  0  0  0  0
 20 21  1  0  0  0  0
 20 43  1  0  0  0  0
 22 23  1  0  0  0  0
 23 24  1  0  0  0  0
 23 44  1  0  0  0  0
 24 25  1  0  0  0  0
 25 45  1  0  0  0  0
 26 46  1  0  0  0  0
 27 28  1  0  0  0  0
 27 32  2  0  0  0  0
 28 29  2  0  0  0  0
 28 47  1  0  0  0  0
 29 30  1  0  0  0  0
 29 48  1  0  0  0  0
 30 31  2  0  0  0  0
 30 49  1  0  0  0  0
 31 32  1  0  0  0  0
 31 50  1  0  0  0  0
 32 51  1  0  0  0  0
M  END
$$$$
