CHEMBL1956890
 OpenBabel04072215363D

 41 44  0  0  0  0  0  0  0  0999 V2000
    1.2251    0.0242    0.2015 N   0  0  0  0  0  0  0  0  0  0  0  0
    2.6054    0.0037    0.1263 C   0  0  0  0  0  0  0  0  0  0  0  0
    3.1712   -1.2044    0.0827 N   0  0  0  0  0  0  0  0  0  0  0  0
    4.5228   -1.3250    0.0130 C   0  0  0  0  0  0  0  0  0  0  0  0
    5.1104   -2.5989   -0.0203 N   0  0  0  0  0  0  0  0  0  0  0  0
    4.6799   -3.7535    0.6633 C   0  0  0  0  0  0  0  0  0  0  0  0
    3.8018   -3.6972    1.7540 C   0  0  0  0  0  0  0  0  0  0  0  0
    3.3874   -4.8558    2.4108 C   0  0  0  0  0  0  0  0  0  0  0  0
    3.8278   -6.1000    1.9682 C   0  0  0  0  0  0  0  0  0  0  0  0
    4.6836   -6.1724    0.8719 C   0  0  0  0  0  0  0  0  0  0  0  0
    5.2608   -7.8628    0.2503 Br  0  0  0  0  0  0  0  0  0  0  0  0
    5.1136   -5.0103    0.2233 C   0  0  0  0  0  0  0  0  0  0  0  0
    5.2793   -0.1435   -0.0309 C   0  0  0  0  0  0  0  0  0  0  0  0
    6.6603    0.1984   -0.0718 C   0  0  0  0  0  0  0  0  0  0  0  0
    6.7534    1.5741   -0.0417 C   0  0  0  0  0  0  0  0  0  0  0  0
    5.4764    2.0827   -0.0019 N   0  0  0  0  0  0  0  0  0  0  0  0
    5.1381    3.4984    0.1046 C   0  0  0  0  0  0  0  0  0  0  0  0
    5.1578    4.1830   -1.2420 C   0  0  0  0  0  0  0  0  0  0  0  0
    4.1951    3.8175   -2.2039 C   0  0  0  0  0  0  0  0  0  0  0  0
    4.1768    4.4060   -3.4695 C   0  0  0  0  0  0  0  0  0  0  0  0
    5.1121    5.3818   -3.7955 C   0  0  0  0  0  0  0  0  0  0  0  0
    6.0598    5.7739   -2.8516 C   0  0  0  0  0  0  0  0  0  0  0  0
    6.0847    5.1809   -1.5833 C   0  0  0  0  0  0  0  0  0  0  0  0
    7.2896    5.7391   -0.4779 Cl  0  0  0  0  0  0  0  0  0  0  0  0
    4.5708    1.0486    0.0150 C   0  0  0  0  0  0  0  0  0  0  0  0
    3.2370    1.1790    0.0774 N   0  0  0  0  0  0  0  0  0  0  0  0
    0.8670   -0.8556   -0.1468 H   0  0  0  0  0  0  0  0  0  0  0  0
    0.8662    0.8702   -0.2120 H   0  0  0  0  0  0  0  0  0  0  0  0
    6.1077   -2.5847   -0.1883 H   0  0  0  0  0  0  0  0  0  0  0  0
    3.4437   -2.7392    2.1241 H   0  0  0  0  0  0  0  0  0  0  0  0
    2.7191   -4.7828    3.2653 H   0  0  0  0  0  0  0  0  0  0  0  0
    3.4951   -7.0005    2.4781 H   0  0  0  0  0  0  0  0  0  0  0  0
    5.7647   -5.0863   -0.6435 H   0  0  0  0  0  0  0  0  0  0  0  0
    7.4989   -0.4850   -0.0903 H   0  0  0  0  0  0  0  0  0  0  0  0
    7.6163    2.2283   -0.0351 H   0  0  0  0  0  0  0  0  0  0  0  0
    5.8415    3.9297    0.8229 H   0  0  0  0  0  0  0  0  0  0  0  0
    4.1445    3.5901    0.5582 H   0  0  0  0  0  0  0  0  0  0  0  0
    3.4484    3.0589   -1.9713 H   0  0  0  0  0  0  0  0  0  0  0  0
    3.4315    4.0985   -4.1993 H   0  0  0  0  0  0  0  0  0  0  0  0
    5.1024    5.8389   -4.7818 H   0  0  0  0  0  0  0  0  0  0  0  0
    6.7805    6.5458   -3.1116 H   0  0  0  0  0  0  0  0  0  0  0  0
  1  2  1  0  0  0  0
  1 27  1  0  0  0  0
  1 28  1  0  0  0  0
  2  3  1  0  0  0  0
  2 26  2  0  0  0  0
  3  4  2  0  0  0  0
  4  5  1  0  0  0  0
  4 13  1  0  0  0  0
  5  6  1  0  0  0  0
  5 29  1  0  0  0  0
  6  7  1  0  0  0  0
  6 12  2  0  0  0  0
  7  8  2  0  0  0  0
  7 30  1  0  0  0  0
  8  9  1  0  0  0  0
  8 31  1  0  0  0  0
  9 10  2  0  0  0  0
  9 32  1  0  0  0  0
 10 11  1  0  0  0  0
 10 12  1  0  0  0  0
 12 33  1  0  0  0  0
 13 14  1  0  0  0  0
 13 25  2  0  0  0  0
 14 15  2  0  0  0  0
 14 34  1  0  0  0  0
 15 16  1  0  0  0  0
 15 35  1  0  0  0  0
 16 17  1  0  0  0  0
 16 25  1  0  0  0  0
 17 18  1  0  0  0  0
 17 36  1  0  0  0  0
 17 37  1  0  0  0  0
 18 19  1  0  0  0  0
 18 23  2  0  0  0  0
 19 20  2  0  0  0  0
 19 38  1  0  0  0  0
 20 21  1  0  0  0  0
 20 39  1  0  0  0  0
 21 22  2  0  0  0  0
 21 40  1  0  0  0  0
 22 23  1  0  0  0  0
 22 41  1  0  0  0  0
 23 24  1  0  0  0  0
 25 26  1  0  0  0  0
M  END
$$$$
