CHEMBL193342
 OpenBabel04072215363D

 46 49  0  0  0  0  0  0  0  0999 V2000
    1.3476   -0.5872   -0.0389 N   0  0  0  0  0  0  0  0  0  0  0  0
    2.5355    0.0890   -0.1487 C   0  0  0  0  0  0  0  0  0  0  0  0
    2.9069    0.5505   -1.2194 O   0  0  0  0  0  0  0  0  0  0  0  0
    3.3200    0.2676    1.0989 C   0  0  0  0  0  0  0  0  0  0  0  0
    3.2576   -0.6678    2.1271 C   0  0  0  0  0  0  0  0  0  0  0  0
    3.9945   -0.4683    3.3018 C   0  0  0  0  0  0  0  0  0  0  0  0
    4.7400    0.7036    3.5393 C   0  0  0  0  0  0  0  0  0  0  0  0
    5.4292    0.9804    4.8365 C   0  0  0  0  0  0  0  0  0  0  0  0
    6.5566    1.7144    4.7199 N   0  0  0  0  0  0  0  0  0  0  0  0
    7.3455    1.9965    5.8133 N   0  0  0  0  0  0  0  0  0  0  0  0
    7.0555    1.5028    7.0356 C   0  0  0  0  0  0  0  0  0  0  0  0
    7.9261    1.7689    8.1374 N   0  0  0  0  0  0  0  0  0  0  0  0
    8.7748    2.9008    8.2580 C   0  0  0  0  0  0  0  0  0  0  0  0
    8.4322    4.1594    7.7529 C   0  0  0  0  0  0  0  0  0  0  0  0
    9.2554    5.2736    7.9660 C   0  0  0  0  0  0  0  0  0  0  0  0
   10.4264    5.1484    8.7094 C   0  0  0  0  0  0  0  0  0  0  0  0
   11.3606    6.1229    8.9070 O   0  0  0  0  0  0  0  0  0  0  0  0
   10.9180    7.4748    8.9324 C   0  0  0  0  0  0  0  0  0  0  0  0
   10.3733    7.8275    7.7431 F   0  0  0  0  0  0  0  0  0  0  0  0
    9.9736    7.6241    9.8938 F   0  0  0  0  0  0  0  0  0  0  0  0
   12.2930    8.5333    9.2745 Cl  0  0  0  0  0  0  0  0  0  0  0  0
   10.7444    3.9074    9.2655 C   0  0  0  0  0  0  0  0  0  0  0  0
    9.9121    2.8012    9.0660 C   0  0  0  0  0  0  0  0  0  0  0  0
    5.9206    0.6744    7.2094 C   0  0  0  0  0  0  0  0  0  0  0  0
    5.6162    0.0260    8.4373 C   0  0  0  0  0  0  0  0  0  0  0  0
    4.4431   -0.6995    8.6242 C   0  0  0  0  0  0  0  0  0  0  0  0
    3.5071   -0.7443    7.6105 C   0  0  0  0  0  0  0  0  0  0  0  0
    3.7874   -0.1324    6.3879 C   0  0  0  0  0  0  0  0  0  0  0  0
    5.0358    0.5001    6.1131 C   0  0  0  0  0  0  0  0  0  0  0  0
    4.8491    1.5899    2.4444 C   0  0  0  0  0  0  0  0  0  0  0  0
    4.1633    1.3705    1.2334 C   0  0  0  0  0  0  0  0  0  0  0  0
    0.7759   -0.6388   -0.8745 H   0  0  0  0  0  0  0  0  0  0  0  0
    0.8992   -0.7473    0.8476 H   0  0  0  0  0  0  0  0  0  0  0  0
    2.6723   -1.5773    2.0217 H   0  0  0  0  0  0  0  0  0  0  0  0
    3.9747   -1.2706    4.0371 H   0  0  0  0  0  0  0  0  0  0  0  0
    7.3851    1.7419    8.9965 H   0  0  0  0  0  0  0  0  0  0  0  0
    7.5227    4.2922    7.1714 H   0  0  0  0  0  0  0  0  0  0  0  0
    8.9531    6.2073    7.5036 H   0  0  0  0  0  0  0  0  0  0  0  0
   11.6484    3.7939    9.8593 H   0  0  0  0  0  0  0  0  0  0  0  0
   10.1749    1.8495    9.5208 H   0  0  0  0  0  0  0  0  0  0  0  0
    6.3076    0.0595    9.2769 H   0  0  0  0  0  0  0  0  0  0  0  0
    4.2533   -1.2013    9.5701 H   0  0  0  0  0  0  0  0  0  0  0  0
    2.5627   -1.2626    7.7570 H   0  0  0  0  0  0  0  0  0  0  0  0
    2.9966   -0.1463    5.6441 H   0  0  0  0  0  0  0  0  0  0  0  0
    5.4898    2.4699    2.5158 H   0  0  0  0  0  0  0  0  0  0  0  0
    4.2833    2.0713    0.4109 H   0  0  0  0  0  0  0  0  0  0  0  0
  1  2  1  0  0  0  0
  1 32  1  0  0  0  0
  1 33  1  0  0  0  0
  2  3  2  0  0  0  0
  2  4  1  0  0  0  0
  4  5  1  0  0  0  0
  4 31  2  0  0  0  0
  5  6  2  0  0  0  0
  5 34  1  0  0  0  0
  6  7  1  0  0  0  0
  6 35  1  0  0  0  0
  7  8  1  0  0  0  0
  7 30  2  0  0  0  0
  8  9  1  0  0  0  0
  8 29  2  0  0  0  0
  9 10  2  0  0  0  0
 10 11  1  0  0  0  0
 11 12  1  0  0  0  0
 11 24  2  0  0  0  0
 12 13  1  0  0  0  0
 12 36  1  0  0  0  0
 13 14  1  0  0  0  0
 13 23  2  0  0  0  0
 14 15  2  0  0  0  0
 14 37  1  0  0  0  0
 15 16  1  0  0  0  0
 15 38  1  0  0  0  0
 16 17  1  0  0  0  0
 16 22  2  0  0  0  0
 17 18  1  0  0  0  0
 18 19  1  0  0  0  0
 18 20  1  0  0  0  0
 18 21  1  0  0  0  0
 22 23  1  0  0  0  0
 22 39  1  0  0  0  0
 23 40  1  0  0  0  0
 24 25  1  0  0  0  0
 24 29  1  0  0  0  0
 25 26  2  0  0  0  0
 25 41  1  0  0  0  0
 26 27  1  0  0  0  0
 26 42  1  0  0  0  0
 27 28  2  0  0  0  0
 27 43  1  0  0  0  0
 28 29  1  0  0  0  0
 28 44  1  0  0  0  0
 30 31  1  0  0  0  0
 30 45  1  0  0  0  0
 31 46  1  0  0  0  0
M  END
$$$$
