CHEMBL3221549
 OpenBabel04072215363D

 49 50  0  0  0  0  0  0  0  0999 V2000
    1.1513    3.9940    3.2461 C   0  0  0  0  0  0  0  0  0  0  0  0
    2.0922    2.8175    3.0257 C   0  0  0  0  0  0  0  0  0  0  0  0
    2.9147    3.0250    1.9230 O   0  0  0  0  0  0  0  0  0  0  0  0
    4.2573    3.2230    2.0225 C   0  0  0  0  0  0  0  0  0  0  0  0
    4.7166    3.5785    3.0957 O   0  0  0  0  0  0  0  0  0  0  0  0
    5.0625    3.0612    0.9212 N   0  0  0  0  0  0  0  0  0  0  0  0
    6.5002    3.2020    0.8995 C   0  0  0  0  0  0  0  0  0  0  0  0
    7.2742    3.2488    2.0777 C   0  0  0  0  0  0  0  0  0  0  0  0
    8.6439    3.4385    2.0289 C   0  0  0  0  0  0  0  0  0  0  0  0
    9.3257    3.5689    0.8153 C   0  0  0  0  0  0  0  0  0  0  0  0
   10.7333    3.8200    0.9030 N   0  0  0  0  0  0  0  0  0  0  0  0
   11.7516    3.6270   -0.0829 C   0  0  0  0  0  0  0  0  0  0  0  0
   11.4768    2.9338   -1.2226 N   0  0  0  0  0  0  0  0  0  0  0  0
   12.4449    2.6352   -2.1276 C   0  0  0  0  0  0  0  0  0  0  0  0
   13.7289    3.0043   -1.9006 N   0  0  0  0  0  0  0  0  0  0  0  0
   14.0736    3.7065   -0.7938 C   0  0  0  0  0  0  0  0  0  0  0  0
   15.4099    4.0699   -0.6071 C   0  0  0  0  0  0  0  0  0  0  0  0
   15.8096    4.8196    0.5224 C   0  0  0  0  0  0  0  0  0  0  0  0
   17.1049    5.1866    0.6965 O   0  0  0  0  0  0  0  0  0  0  0  0
   18.1581    4.8591   -0.1364 C   0  0  0  0  0  0  0  0  0  0  0  0
   14.8311    5.1983    1.4739 C   0  0  0  0  0  0  0  0  0  0  0  0
   15.0968    5.9352    2.5904 O   0  0  0  0  0  0  0  0  0  0  0  0
   16.3114    6.4395    3.0071 C   0  0  0  0  0  0  0  0  0  0  0  0
   13.4968    4.8083    1.2831 C   0  0  0  0  0  0  0  0  0  0  0  0
   13.0931    4.0553    0.1556 C   0  0  0  0  0  0  0  0  0  0  0  0
    8.5869    3.4747   -0.3803 C   0  0  0  0  0  0  0  0  0  0  0  0
    7.1842    3.2955   -0.3336 C   0  0  0  0  0  0  0  0  0  0  0  0
    0.4015    0.2621   -2.4331 Cl  0  0  0  0  0  0  0  0  0  0  0  0
    0.5045    3.7836    4.1260 H   0  0  0  0  0  0  0  0  0  0  0  0
    0.5085    4.1519    2.3566 H   0  0  0  0  0  0  0  0  0  0  0  0
    1.7341    4.9168    3.4540 H   0  0  0  0  0  0  0  0  0  0  0  0
    1.5044    1.8909    2.8630 H   0  0  0  0  0  0  0  0  0  0  0  0
    2.6805    2.6720    3.9601 H   0  0  0  0  0  0  0  0  0  0  0  0
    4.5948    2.8350    0.0312 H   0  0  0  0  0  0  0  0  0  0  0  0
    6.8717    3.1399    3.0662 H   0  0  0  0  0  0  0  0  0  0  0  0
    9.1848    3.4829    2.9663 H   0  0  0  0  0  0  0  0  0  0  0  0
   11.0507    4.0815    1.8430 H   0  0  0  0  0  0  0  0  0  0  0  0
   12.2005    2.0751   -3.0208 H   0  0  0  0  0  0  0  0  0  0  0  0
   16.1323    3.7689   -1.3489 H   0  0  0  0  0  0  0  0  0  0  0  0
   19.0855    5.3337    0.2487 H   0  0  0  0  0  0  0  0  0  0  0  0
   17.9694    5.2394   -1.1606 H   0  0  0  0  0  0  0  0  0  0  0  0
   18.3014    3.7586   -0.1523 H   0  0  0  0  0  0  0  0  0  0  0  0
   16.1663    6.9994    3.9543 H   0  0  0  0  0  0  0  0  0  0  0  0
   16.7188    7.1437    2.2508 H   0  0  0  0  0  0  0  0  0  0  0  0
   17.0246    5.6112    3.2006 H   0  0  0  0  0  0  0  0  0  0  0  0
   12.7980    5.1349    2.0379 H   0  0  0  0  0  0  0  0  0  0  0  0
    9.0638    3.5776   -1.3455 H   0  0  0  0  0  0  0  0  0  0  0  0
    6.6279    3.2557   -1.2632 H   0  0  0  0  0  0  0  0  0  0  0  0
    1.4055    1.0307   -1.8913 H   0  0  0  0  0  0  0  0  0  0  0  0
  1  2  1  0  0  0  0
  1 29  1  0  0  0  0
  1 30  1  0  0  0  0
  1 31  1  0  0  0  0
  2  3  1  0  0  0  0
  2 32  1  0  0  0  0
  2 33  1  0  0  0  0
  3  4  1  0  0  0  0
  4  5  2  0  0  0  0
  4  6  1  0  0  0  0
  6  7  1  0  0  0  0
  6 34  1  0  0  0  0
  7  8  1  0  0  0  0
  7 27  2  0  0  0  0
  8  9  2  0  0  0  0
  8 35  1  0  0  0  0
  9 10  1  0  0  0  0
  9 36  1  0  0  0  0
 10 11  1  0  0  0  0
 10 26  2  0  0  0  0
 11 12  1  0  0  0  0
 11 37  1  0  0  0  0
 12 13  1  0  0  0  0
 12 25  2  0  0  0  0
 13 14  2  0  0  0  0
 14 15  1  0  0  0  0
 14 38  1  0  0  0  0
 15 16  2  0  0  0  0
 16 17  1  0  0  0  0
 16 25  1  0  0  0  0
 17 18  2  0  0  0  0
 17 39  1  0  0  0  0
 18 19  1  0  0  0  0
 18 21  1  0  0  0  0
 19 20  1  0  0  0  0
 20 40  1  0  0  0  0
 20 41  1  0  0  0  0
 20 42  1  0  0  0  0
 21 22  1  0  0  0  0
 21 24  2  0  0  0  0
 22 23  1  0  0  0  0
 23 43  1  0  0  0  0
 23 44  1  0  0  0  0
 23 45  1  0  0  0  0
 24 25  1  0  0  0  0
 24 46  1  0  0  0  0
 26 27  1  0  0  0  0
 26 47  1  0  0  0  0
 27 48  1  0  0  0  0
 28 49  1  0  0  0  0
M  END
$$$$
