CHEMBL303195
 OpenBabel04072215363D

 48 51  0  0  0  0  0  0  0  0999 V2000
    1.4518   -1.2196   -0.4715 C   0  0  0  0  0  0  0  0  0  0  0  0
    2.5320   -0.1816   -0.1660 C   0  0  0  0  0  0  0  0  0  0  0  0
    3.6826   -0.7756    0.6446 C   0  0  0  0  0  0  0  0  0  0  0  0
    2.9776    0.5157   -1.3705 N   0  0  0  0  0  0  0  0  0  0  0  0
    2.8161    1.8645   -1.5737 C   0  0  0  0  0  0  0  0  0  0  0  0
    3.2182    2.1703   -2.8637 C   0  0  0  0  0  0  0  0  0  0  0  0
    3.1319    3.5244   -3.4056 C   0  0  0  0  0  0  0  0  0  0  0  0
    3.3128    4.6430   -2.5826 C   0  0  0  0  0  0  0  0  0  0  0  0
    3.3245    5.9308   -3.1220 C   0  0  0  0  0  0  0  0  0  0  0  0
    3.2505    6.1099   -4.5021 C   0  0  0  0  0  0  0  0  0  0  0  0
    3.3966    7.3154   -5.1473 O   0  0  0  0  0  0  0  0  0  0  0  0
    4.2466    8.2758   -4.6294 C   0  0  0  0  0  0  0  0  0  0  0  0
    5.4191    7.9766   -3.9229 C   0  0  0  0  0  0  0  0  0  0  0  0
    6.1738    9.0006   -3.3536 C   0  0  0  0  0  0  0  0  0  0  0  0
    5.7889   10.3261   -3.5349 C   0  0  0  0  0  0  0  0  0  0  0  0
    4.6687   10.6289   -4.3128 C   0  0  0  0  0  0  0  0  0  0  0  0
    3.9161    9.6135   -4.9106 C   0  0  0  0  0  0  0  0  0  0  0  0
    2.7296    9.9412   -5.5942 N   0  0  0  0  0  0  0  0  0  0  0  0
    2.9711    5.0148   -5.3171 C   0  0  0  0  0  0  0  0  0  0  0  0
    2.8714    3.7359   -4.7621 C   0  0  0  0  0  0  0  0  0  0  0  0
    3.7039    0.9488   -3.4472 C   0  0  0  0  0  0  0  0  0  0  0  0
    4.2711    0.5348   -4.6715 C   0  0  0  0  0  0  0  0  0  0  0  0
    4.5664    1.3665   -5.7448 N   0  0  0  0  0  0  0  0  0  0  0  0
    4.5786   -0.7659   -4.8488 N   0  0  0  0  0  0  0  0  0  0  0  0
    4.3499   -1.6195   -3.8400 C   0  0  0  0  0  0  0  0  0  0  0  0
    3.8467   -1.3498   -2.6288 N   0  0  0  0  0  0  0  0  0  0  0  0
    3.5364   -0.0493   -2.4899 C   0  0  0  0  0  0  0  0  0  0  0  0
    1.0554   -1.6480    0.4546 H   0  0  0  0  0  0  0  0  0  0  0  0
    1.8335   -2.0442   -1.0813 H   0  0  0  0  0  0  0  0  0  0  0  0
    0.6185   -0.7613   -1.0157 H   0  0  0  0  0  0  0  0  0  0  0  0
    2.0638    0.5858    0.4654 H   0  0  0  0  0  0  0  0  0  0  0  0
    4.1802   -1.5941    0.1159 H   0  0  0  0  0  0  0  0  0  0  0  0
    3.3102   -1.1715    1.5968 H   0  0  0  0  0  0  0  0  0  0  0  0
    4.4365   -0.0144    0.8738 H   0  0  0  0  0  0  0  0  0  0  0  0
    2.3978    2.4885   -0.7943 H   0  0  0  0  0  0  0  0  0  0  0  0
    3.4711    4.5342   -1.5122 H   0  0  0  0  0  0  0  0  0  0  0  0
    3.4450    6.7832   -2.4563 H   0  0  0  0  0  0  0  0  0  0  0  0
    5.7405    6.9490   -3.7780 H   0  0  0  0  0  0  0  0  0  0  0  0
    7.0484    8.7617   -2.7541 H   0  0  0  0  0  0  0  0  0  0  0  0
    6.3576   11.1257   -3.0685 H   0  0  0  0  0  0  0  0  0  0  0  0
    4.3791   11.6685   -4.4409 H   0  0  0  0  0  0  0  0  0  0  0  0
    2.7828   10.8228   -6.0934 H   0  0  0  0  0  0  0  0  0  0  0  0
    2.4200    9.1745   -6.1886 H   0  0  0  0  0  0  0  0  0  0  0  0
    2.8447    5.1471   -6.3888 H   0  0  0  0  0  0  0  0  0  0  0  0
    2.6145    2.9081   -5.4173 H   0  0  0  0  0  0  0  0  0  0  0  0
    4.8883    2.2859   -5.4696 H   0  0  0  0  0  0  0  0  0  0  0  0
    5.1541    0.8799   -6.4110 H   0  0  0  0  0  0  0  0  0  0  0  0
    4.6088   -2.6562   -4.0318 H   0  0  0  0  0  0  0  0  0  0  0  0
  1  2  1  0  0  0  0
  1 28  1  0  0  0  0
  1 29  1  0  0  0  0
  1 30  1  0  0  0  0
  2  3  1  0  0  0  0
  2  4  1  0  0  0  0
  2 31  1  0  0  0  0
  3 32  1  0  0  0  0
  3 33  1  0  0  0  0
  3 34  1  0  0  0  0
  4  5  1  0  0  0  0
  4 27  1  0  0  0  0
  5  6  2  0  0  0  0
  5 35  1  0  0  0  0
  6  7  1  0  0  0  0
  6 21  1  0  0  0  0
  7  8  1  0  0  0  0
  7 20  2  0  0  0  0
  8  9  2  0  0  0  0
  8 36  1  0  0  0  0
  9 10  1  0  0  0  0
  9 37  1  0  0  0  0
 10 11  1  0  0  0  0
 10 19  2  0  0  0  0
 11 12  1  0  0  0  0
 12 13  1  0  0  0  0
 12 17  2  0  0  0  0
 13 14  2  0  0  0  0
 13 38  1  0  0  0  0
 14 15  1  0  0  0  0
 14 39  1  0  0  0  0
 15 16  2  0  0  0  0
 15 40  1  0  0  0  0
 16 17  1  0  0  0  0
 16 41  1  0  0  0  0
 17 18  1  0  0  0  0
 18 42  1  0  0  0  0
 18 43  1  0  0  0  0
 19 20  1  0  0  0  0
 19 44  1  0  0  0  0
 20 45  1  0  0  0  0
 21 22  1  0  0  0  0
 21 27  2  0  0  0  0
 22 23  1  0  0  0  0
 22 24  2  0  0  0  0
 23 46  1  0  0  0  0
 23 47  1  0  0  0  0
 24 25  1  0  0  0  0
 25 26  2  0  0  0  0
 25 48  1  0  0  0  0
 26 27  1  0  0  0  0
M  END
$$$$
