CHEMBL2113175
 OpenBabel04072215363D

 53 55  0  0  0  0  0  0  0  0999 V2000
    0.8753    5.3523   -1.4367 C   0  0  0  0  0  0  0  0  0  0  0  0
    2.2664    5.0913   -1.4834 O   0  0  0  0  0  0  0  0  0  0  0  0
    2.6000    3.6929   -1.5171 C   0  0  0  0  0  0  0  0  0  0  0  0
    4.1234    3.6533   -1.5445 C   0  0  0  0  0  0  0  0  0  0  0  0
    4.7598    2.3610   -1.5907 O   0  0  0  0  0  0  0  0  0  0  0  0
    6.1452    2.4379   -1.6850 C   0  0  0  0  0  0  0  0  0  0  0  0
    6.8030    3.6950   -1.6930 C   0  0  0  0  0  0  0  0  0  0  0  0
    8.1682    3.8613   -1.8221 C   0  0  0  0  0  0  0  0  0  0  0  0
    8.6563    5.1046   -1.8199 N   0  0  0  0  0  0  0  0  0  0  0  0
    9.9764    5.2261   -1.9451 C   0  0  0  0  0  0  0  0  0  0  0  0
   10.8375    4.2187   -2.0867 N   0  0  0  0  0  0  0  0  0  0  0  0
   10.3256    2.9698   -2.0929 C   0  0  0  0  0  0  0  0  0  0  0  0
   11.2166    1.8746   -2.2484 N   0  0  0  0  0  0  0  0  0  0  0  0
   12.5887    2.0587   -2.1378 C   0  0  0  0  0  0  0  0  0  0  0  0
   13.1810    2.7297   -1.1441 C   0  0  0  0  0  0  0  0  0  0  0  0
   14.6131    3.0183   -1.1159 C   0  0  0  0  0  0  0  0  0  0  0  0
   15.0497    3.7528   -0.2380 O   0  0  0  0  0  0  0  0  0  0  0  0
   15.4714    2.3889   -2.1685 C   0  0  0  0  0  0  0  0  0  0  0  0
   16.8532    2.5116   -2.1833 O   0  0  0  0  0  0  0  0  0  0  0  0
   17.5522    2.7442   -0.9452 C   0  0  0  0  0  0  0  0  0  0  0  0
   17.3610    1.6116    0.0633 C   0  0  0  0  0  0  0  0  0  0  0  0
   17.8144    0.4448   -0.4768 F   0  0  0  0  0  0  0  0  0  0  0  0
   19.0349    2.8780   -1.2732 C   0  0  0  0  0  0  0  0  0  0  0  0
   19.7292    3.1550   -0.1365 F   0  0  0  0  0  0  0  0  0  0  0  0
   14.8902    1.6782   -3.1428 C   0  0  0  0  0  0  0  0  0  0  0  0
   13.4315    1.4760   -3.2217 C   0  0  0  0  0  0  0  0  0  0  0  0
   12.9207    0.8432   -4.1443 O   0  0  0  0  0  0  0  0  0  0  0  0
    8.9560    2.7282   -1.9436 C   0  0  0  0  0  0  0  0  0  0  0  0
    8.3445    1.4590   -1.8838 C   0  0  0  0  0  0  0  0  0  0  0  0
    6.9508    1.2946   -1.7698 C   0  0  0  0  0  0  0  0  0  0  0  0
    6.6678   -0.0357   -1.7647 O   0  0  0  0  0  0  0  0  0  0  0  0
    5.3592   -0.5556   -1.8072 C   0  0  0  0  0  0  0  0  0  0  0  0
    0.7368    6.4389   -1.4100 H   0  0  0  0  0  0  0  0  0  0  0  0
    0.4356    4.9273   -0.5311 H   0  0  0  0  0  0  0  0  0  0  0  0
    0.3803    4.9641   -2.3303 H   0  0  0  0  0  0  0  0  0  0  0  0
    2.1780    3.2273   -2.4130 H   0  0  0  0  0  0  0  0  0  0  0  0
    2.2092    3.1896   -0.6280 H   0  0  0  0  0  0  0  0  0  0  0  0
    4.4572    4.1806   -0.6396 H   0  0  0  0  0  0  0  0  0  0  0  0
    4.4146    4.2347   -2.4310 H   0  0  0  0  0  0  0  0  0  0  0  0
    6.2647    4.6336   -1.5987 H   0  0  0  0  0  0  0  0  0  0  0  0
   10.3840    6.2303   -1.9310 H   0  0  0  0  0  0  0  0  0  0  0  0
   10.9817    1.3570   -3.1007 H   0  0  0  0  0  0  0  0  0  0  0  0
   12.6045    3.1599   -0.3333 H   0  0  0  0  0  0  0  0  0  0  0  0
   17.2533    3.7018   -0.5103 H   0  0  0  0  0  0  0  0  0  0  0  0
   16.3119    1.4505    0.3216 H   0  0  0  0  0  0  0  0  0  0  0  0
   17.9159    1.7958    0.9876 H   0  0  0  0  0  0  0  0  0  0  0  0
   19.2027    3.6981   -1.9787 H   0  0  0  0  0  0  0  0  0  0  0  0
   19.4415    1.9666   -1.7217 H   0  0  0  0  0  0  0  0  0  0  0  0
   15.4775    1.2126   -3.9278 H   0  0  0  0  0  0  0  0  0  0  0  0
    8.9660    0.5641   -1.9161 H   0  0  0  0  0  0  0  0  0  0  0  0
    5.4198   -1.4967   -2.3692 H   0  0  0  0  0  0  0  0  0  0  0  0
    4.6400    0.0795   -2.3203 H   0  0  0  0  0  0  0  0  0  0  0  0
    5.0305   -0.8096   -0.7950 H   0  0  0  0  0  0  0  0  0  0  0  0
  1  2  1  0  0  0  0
  1 33  1  0  0  0  0
  1 34  1  0  0  0  0
  1 35  1  0  0  0  0
  2  3  1  0  0  0  0
  3  4  1  0  0  0  0
  3 36  1  0  0  0  0
  3 37  1  0  0  0  0
  4  5  1  0  0  0  0
  4 38  1  0  0  0  0
  4 39  1  0  0  0  0
  5  6  1  0  0  0  0
  6  7  1  0  0  0  0
  6 30  2  0  0  0  0
  7  8  2  0  0  0  0
  7 40  1  0  0  0  0
  8  9  1  0  0  0  0
  8 28  1  0  0  0  0
  9 10  2  0  0  0  0
 10 11  1  0  0  0  0
 10 41  1  0  0  0  0
 11 12  2  0  0  0  0
 12 13  1  0  0  0  0
 12 28  1  0  0  0  0
 13 14  1  0  0  0  0
 13 42  1  0  0  0  0
 14 15  2  0  0  0  0
 14 26  1  0  0  0  0
 15 16  1  0  0  0  0
 15 43  1  0  0  0  0
 16 17  2  0  0  0  0
 16 18  1  0  0  0  0
 18 19  1  0  0  0  0
 18 25  2  0  0  0  0
 19 20  1  0  0  0  0
 20 21  1  0  0  0  0
 20 23  1  0  0  0  0
 20 44  1  0  0  0  0
 21 22  1  0  0  0  0
 21 45  1  0  0  0  0
 21 46  1  0  0  0  0
 23 24  1  0  0  0  0
 23 47  1  0  0  0  0
 23 48  1  0  0  0  0
 25 26  1  0  0  0  0
 25 49  1  0  0  0  0
 26 27  2  0  0  0  0
 28 29  2  0  0  0  0
 29 30  1  0  0  0  0
 29 50  1  0  0  0  0
 30 31  1  0  0  0  0
 31 32  1  0  0  0  0
 32 51  1  0  0  0  0
 32 52  1  0  0  0  0
 32 53  1  0  0  0  0
M  END
$$$$
