CHEMBL231371
 OpenBabel04072215363D

 60 65  0  0  0  0  0  0  0  0999 V2000
   -3.9206    4.0718    0.8129 C   0  0  0  0  0  0  0  0  0  0  0  0
   -3.3711    2.8857    0.1630 N   0  0  0  0  0  0  0  0  0  0  0  0
   -1.9747    2.6564    0.5712 C   0  0  0  0  0  0  0  0  0  0  0  0
   -1.3979    1.3491   -0.0282 C   0  0  0  0  0  0  0  0  0  0  0  0
   -2.1742    0.1295    0.2951 N   0  0  0  0  0  0  0  0  0  0  0  0
   -2.0087   -0.2231    1.7190 C   0  0  0  0  0  0  0  0  0  0  0  0
   -2.6776   -1.5208    2.1210 C   0  0  0  0  0  0  0  0  0  0  0  0
   -3.9744   -1.4435    2.6629 C   0  0  0  0  0  0  0  0  0  0  0  0
   -4.7040   -2.5716    3.0513 C   0  0  0  0  0  0  0  0  0  0  0  0
   -5.9670   -2.4946    3.6801 N   0  0  0  0  0  0  0  0  0  0  0  0
   -6.6093   -1.3482    4.0032 C   0  0  0  0  0  0  0  0  0  0  0  0
   -6.5577   -0.1598    3.4412 N   0  0  0  0  0  0  0  0  0  0  0  0
   -7.3951    0.6456    4.1651 C   0  0  0  0  0  0  0  0  0  0  0  0
   -7.7049    2.0011    3.9925 C   0  0  0  0  0  0  0  0  0  0  0  0
   -8.6186    2.5942    4.8672 C   0  0  0  0  0  0  0  0  0  0  0  0
   -8.9195    3.9176    4.6050 O   0  0  0  0  0  0  0  0  0  0  0  0
   -9.3080    4.7353    5.6571 C   0  0  0  0  0  0  0  0  0  0  0  0
   -8.8041    4.5357    6.8976 N   0  0  0  0  0  0  0  0  0  0  0  0
   -9.2405    5.3305    7.8911 C   0  0  0  0  0  0  0  0  0  0  0  0
  -10.1281    6.3440    7.8074 N   0  0  0  0  0  0  0  0  0  0  0  0
  -10.5540    6.5222    6.5526 C   0  0  0  0  0  0  0  0  0  0  0  0
  -11.4503    7.4786    6.1632 N   0  0  0  0  0  0  0  0  0  0  0  0
  -11.6501    7.3981    4.8063 C   0  0  0  0  0  0  0  0  0  0  0  0
  -10.8778    6.3628    4.3258 C   0  0  0  0  0  0  0  0  0  0  0  0
  -10.1884    5.7922    5.4319 C   0  0  0  0  0  0  0  0  0  0  0  0
   -9.2360    1.8360    5.8733 C   0  0  0  0  0  0  0  0  0  0  0  0
   -8.9074    0.4893    6.0821 C   0  0  0  0  0  0  0  0  0  0  0  0
   -7.9878   -0.0686    5.1979 C   0  0  0  0  0  0  0  0  0  0  0  0
   -7.4613   -1.3286    5.0793 N   0  0  0  0  0  0  0  0  0  0  0  0
   -4.1519   -3.8242    2.7673 C   0  0  0  0  0  0  0  0  0  0  0  0
   -2.8484   -3.9313    2.2700 C   0  0  0  0  0  0  0  0  0  0  0  0
   -2.0986   -2.7844    1.9878 C   0  0  0  0  0  0  0  0  0  0  0  0
   -0.4440   -2.9967    1.5464 Cl  0  0  0  0  0  0  0  0  0  0  0  0
   -3.5789    0.3898   -0.1049 C   0  0  0  0  0  0  0  0  0  0  0  0
   -4.1964    1.6963    0.4545 C   0  0  0  0  0  0  0  0  0  0  0  0
   -3.3108    4.9540    0.5860 H   0  0  0  0  0  0  0  0  0  0  0  0
   -3.9730    3.9636    1.9024 H   0  0  0  0  0  0  0  0  0  0  0  0
   -4.9296    4.2828    0.4390 H   0  0  0  0  0  0  0  0  0  0  0  0
   -1.8914    2.6291    1.6657 H   0  0  0  0  0  0  0  0  0  0  0  0
   -1.3548    3.4926    0.2271 H   0  0  0  0  0  0  0  0  0  0  0  0
   -0.3534    1.2269    0.2849 H   0  0  0  0  0  0  0  0  0  0  0  0
   -1.3641    1.4525   -1.1215 H   0  0  0  0  0  0  0  0  0  0  0  0
   -2.3755    0.5744    2.3773 H   0  0  0  0  0  0  0  0  0  0  0  0
   -0.9401   -0.3004    1.9532 H   0  0  0  0  0  0  0  0  0  0  0  0
   -4.4003   -0.4539    2.7973 H   0  0  0  0  0  0  0  0  0  0  0  0
   -6.1880   -3.3493    4.1772 H   0  0  0  0  0  0  0  0  0  0  0  0
   -7.2428    2.5635    3.1879 H   0  0  0  0  0  0  0  0  0  0  0  0
   -8.8320    5.1317    8.8749 H   0  0  0  0  0  0  0  0  0  0  0  0
  -11.8876    8.1321    6.7991 H   0  0  0  0  0  0  0  0  0  0  0  0
  -12.3247    8.0826    4.3078 H   0  0  0  0  0  0  0  0  0  0  0  0
  -10.8139    6.0458    3.2927 H   0  0  0  0  0  0  0  0  0  0  0  0
   -9.9826    2.2833    6.5218 H   0  0  0  0  0  0  0  0  0  0  0  0
   -9.3652   -0.0823    6.8823 H   0  0  0  0  0  0  0  0  0  0  0  0
   -7.6453   -2.1046    5.6943 H   0  0  0  0  0  0  0  0  0  0  0  0
   -4.7162   -4.7335    2.9571 H   0  0  0  0  0  0  0  0  0  0  0  0
   -2.4161   -4.9174    2.1199 H   0  0  0  0  0  0  0  0  0  0  0  0
   -4.2265   -0.4599    0.1347 H   0  0  0  0  0  0  0  0  0  0  0  0
   -3.6022    0.4464   -1.2026 H   0  0  0  0  0  0  0  0  0  0  0  0
   -4.3523    1.5931    1.5352 H   0  0  0  0  0  0  0  0  0  0  0  0
   -5.1853    1.8278   -0.0022 H   0  0  0  0  0  0  0  0  0  0  0  0
  1  2  1  0  0  0  0
  1 36  1  0  0  0  0
  1 37  1  0  0  0  0
  1 38  1  0  0  0  0
  2  3  1  0  0  0  0
  2 35  1  0  0  0  0
  3  4  1  0  0  0  0
  3 39  1  0  0  0  0
  3 40  1  0  0  0  0
  4  5  1  0  0  0  0
  4 41  1  0  0  0  0
  4 42  1  0  0  0  0
  5  6  1  0  0  0  0
  5 34  1  0  0  0  0
  6  7  1  0  0  0  0
  6 43  1  0  0  0  0
  6 44  1  0  0  0  0
  7  8  1  0  0  0  0
  7 32  2  0  0  0  0
  8  9  2  0  0  0  0
  8 45  1  0  0  0  0
  9 10  1  0  0  0  0
  9 30  1  0  0  0  0
 10 11  1  0  0  0  0
 10 46  1  0  0  0  0
 11 12  2  0  0  0  0
 11 29  1  0  0  0  0
 12 13  1  0  0  0  0
 13 14  1  0  0  0  0
 13 28  2  0  0  0  0
 14 15  2  0  0  0  0
 14 47  1  0  0  0  0
 15 16  1  0  0  0  0
 15 26  1  0  0  0  0
 16 17  1  0  0  0  0
 17 18  1  0  0  0  0
 17 25  2  0  0  0  0
 18 19  2  0  0  0  0
 19 20  1  0  0  0  0
 19 48  1  0  0  0  0
 20 21  2  0  0  0  0
 21 22  1  0  0  0  0
 21 25  1  0  0  0  0
 22 23  1  0  0  0  0
 22 49  1  0  0  0  0
 23 24  2  0  0  0  0
 23 50  1  0  0  0  0
 24 25  1  0  0  0  0
 24 51  1  0  0  0  0
 26 27  2  0  0  0  0
 26 52  1  0  0  0  0
 27 28  1  0  0  0  0
 27 53  1  0  0  0  0
 28 29  1  0  0  0  0
 29 54  1  0  0  0  0
 30 31  2  0  0  0  0
 30 55  1  0  0  0  0
 31 32  1  0  0  0  0
 31 56  1  0  0  0  0
 32 33  1  0  0  0  0
 34 35  1  0  0  0  0
 34 57  1  0  0  0  0
 34 58  1  0  0  0  0
 35 59  1  0  0  0  0
 35 60  1  0  0  0  0
M  END
$$$$
