CHEMBL353584
 OpenBabel04072215363D

 53 55  0  0  0  0  0  0  0  0999 V2000
    5.6194    6.4850   -0.3111 C   0  0  0  0  0  0  0  0  0  0  0  0
    6.3859    5.2702   -0.3303 N   0  0  0  0  0  0  0  0  0  0  0  0
    6.0235    4.1719    0.4190 C   0  0  0  0  0  0  0  0  0  0  0  0
    5.0452    4.1449    1.1573 O   0  0  0  0  0  0  0  0  0  0  0  0
    6.9337    2.9892    0.2783 C   0  0  0  0  0  0  0  0  0  0  0  0
    6.6327    1.8179    0.9541 C   0  0  0  0  0  0  0  0  0  0  0  0
    7.5578    0.7796    0.8912 C   0  0  0  0  0  0  0  0  0  0  0  0
    7.4238   -0.4163    1.5639 O   0  0  0  0  0  0  0  0  0  0  0  0
    6.8541   -0.4077    2.8168 C   0  0  0  0  0  0  0  0  0  0  0  0
    6.0953   -1.5254    3.1640 C   0  0  0  0  0  0  0  0  0  0  0  0
    5.4265   -1.5678    4.3897 C   0  0  0  0  0  0  0  0  0  0  0  0
    5.5085   -0.4853    5.2621 C   0  0  0  0  0  0  0  0  0  0  0  0
    4.8098   -0.3978    6.4700 N   0  0  0  0  0  0  0  0  0  0  0  0
    3.9935   -1.3083    7.0772 C   0  0  0  0  0  0  0  0  0  0  0  0
    3.7160   -2.4312    6.6571 O   0  0  0  0  0  0  0  0  0  0  0  0
    3.5045   -0.9390    8.3049 N   0  0  0  0  0  0  0  0  0  0  0  0
    3.6448    0.2842    8.9241 C   0  0  0  0  0  0  0  0  0  0  0  0
    3.3233    0.5470   10.2699 C   0  0  0  0  0  0  0  0  0  0  0  0
    3.6622    1.8683   10.4576 C   0  0  0  0  0  0  0  0  0  0  0  0
    3.6393    2.7868   11.6429 C   0  0  0  0  0  0  0  0  0  0  0  0
    4.6355    2.2677   12.6946 C   0  0  0  0  0  0  0  0  0  0  0  0
    4.0309    4.2251   11.2590 C   0  0  0  0  0  0  0  0  0  0  0  0
    2.2204    2.8031   12.2332 C   0  0  0  0  0  0  0  0  0  0  0  0
    4.1252    2.3720    9.2838 O   0  0  0  0  0  0  0  0  0  0  0  0
    4.1249    1.3839    8.3309 N   0  0  0  0  0  0  0  0  0  0  0  0
    6.3241    0.6046    4.9379 C   0  0  0  0  0  0  0  0  0  0  0  0
    7.0242    0.6286    3.7358 C   0  0  0  0  0  0  0  0  0  0  0  0
    8.6864    0.9062    0.0906 C   0  0  0  0  0  0  0  0  0  0  0  0
    8.8843    2.1034   -0.5756 C   0  0  0  0  0  0  0  0  0  0  0  0
    8.0453    3.1592   -0.4937 N   0  0  0  0  0  0  0  0  0  0  0  0
    6.0787    7.2055   -0.9908 H   0  0  0  0  0  0  0  0  0  0  0  0
    5.6025    6.8860    0.7063 H   0  0  0  0  0  0  0  0  0  0  0  0
    4.5954    6.2690   -0.6283 H   0  0  0  0  0  0  0  0  0  0  0  0
    7.2247    5.1826   -0.8979 H   0  0  0  0  0  0  0  0  0  0  0  0
    5.7205    1.7444    1.5370 H   0  0  0  0  0  0  0  0  0  0  0  0
    6.0024   -2.3603    2.4756 H   0  0  0  0  0  0  0  0  0  0  0  0
    4.8286   -2.4423    4.6249 H   0  0  0  0  0  0  0  0  0  0  0  0
    4.8962    0.4869    6.9619 H   0  0  0  0  0  0  0  0  0  0  0  0
    3.0183   -1.6715    8.7951 H   0  0  0  0  0  0  0  0  0  0  0  0
    2.9449   -0.1357   11.0153 H   0  0  0  0  0  0  0  0  0  0  0  0
    5.6627    2.2847   12.3071 H   0  0  0  0  0  0  0  0  0  0  0  0
    4.4167    1.2333   12.9826 H   0  0  0  0  0  0  0  0  0  0  0  0
    4.6102    2.8799   13.6018 H   0  0  0  0  0  0  0  0  0  0  0  0
    5.0536    4.2713   10.8621 H   0  0  0  0  0  0  0  0  0  0  0  0
    3.9865    4.8939   12.1261 H   0  0  0  0  0  0  0  0  0  0  0  0
    3.3635    4.6325   10.4903 H   0  0  0  0  0  0  0  0  0  0  0  0
    1.8967    1.7994   12.5347 H   0  0  0  0  0  0  0  0  0  0  0  0
    1.4926    3.1712   11.4992 H   0  0  0  0  0  0  0  0  0  0  0  0
    2.1627    3.4487   13.1140 H   0  0  0  0  0  0  0  0  0  0  0  0
    6.4185    1.4517    5.6141 H   0  0  0  0  0  0  0  0  0  0  0  0
    7.6637    1.4793    3.5198 H   0  0  0  0  0  0  0  0  0  0  0  0
    9.3996    0.0940    0.0021 H   0  0  0  0  0  0  0  0  0  0  0  0
    9.7585    2.2496   -1.2038 H   0  0  0  0  0  0  0  0  0  0  0  0
  1  2  1  0  0  0  0
  1 31  1  0  0  0  0
  1 32  1  0  0  0  0
  1 33  1  0  0  0  0
  2  3  1  0  0  0  0
  2 34  1  0  0  0  0
  3  4  2  0  0  0  0
  3  5  1  0  0  0  0
  5  6  1  0  0  0  0
  5 30  2  0  0  0  0
  6  7  2  0  0  0  0
  6 35  1  0  0  0  0
  7  8  1  0  0  0  0
  7 28  1  0  0  0  0
  8  9  1  0  0  0  0
  9 10  1  0  0  0  0
  9 27  2  0  0  0  0
 10 11  2  0  0  0  0
 10 36  1  0  0  0  0
 11 12  1  0  0  0  0
 11 37  1  0  0  0  0
 12 13  1  0  0  0  0
 12 26  2  0  0  0  0
 13 14  1  0  0  0  0
 13 38  1  0  0  0  0
 14 15  2  0  0  0  0
 14 16  1  0  0  0  0
 16 17  1  0  0  0  0
 16 39  1  0  0  0  0
 17 18  1  0  0  0  0
 17 25  2  0  0  0  0
 18 19  2  0  0  0  0
 18 40  1  0  0  0  0
 19 20  1  0  0  0  0
 19 24  1  0  0  0  0
 20 21  1  0  0  0  0
 20 22  1  0  0  0  0
 20 23  1  0  0  0  0
 21 41  1  0  0  0  0
 21 42  1  0  0  0  0
 21 43  1  0  0  0  0
 22 44  1  0  0  0  0
 22 45  1  0  0  0  0
 22 46  1  0  0  0  0
 23 47  1  0  0  0  0
 23 48  1  0  0  0  0
 23 49  1  0  0  0  0
 24 25  1  0  0  0  0
 26 27  1  0  0  0  0
 26 50  1  0  0  0  0
 27 51  1  0  0  0  0
 28 29  2  0  0  0  0
 28 52  1  0  0  0  0
 29 30  1  0  0  0  0
 29 53  1  0  0  0  0
M  END
$$$$
