CHEMBL491045
 OpenBabel04072215383D

 25 27  0  0  0  0  0  0  0  0999 V2000
   -2.4307    1.1444   -0.2247 O   0  0  0  0  0  0  0  0  0  0  0  0
   -1.6073    0.2591   -0.0970 C   0  0  0  0  0  0  0  0  0  0  0  0
   -1.9048   -1.0820   -0.0166 N   0  0  0  0  0  0  0  0  0  0  0  0
   -0.7381   -1.9178    0.0116 C   0  0  0  0  0  0  0  0  0  0  0  0
    0.3715   -0.9211   -0.0014 C   0  0  0  0  0  0  0  0  0  0  0  0
    1.7331   -1.1633    0.0355 C   0  0  0  0  0  0  0  0  0  0  0  0
    2.5903   -0.0653    0.0238 C   0  0  0  0  0  0  0  0  0  0  0  0
    2.0792    1.2466   -0.0161 C   0  0  0  0  0  0  0  0  0  0  0  0
    0.6953    1.5102   -0.0530 C   0  0  0  0  0  0  0  0  0  0  0  0
    0.2309    2.9048   -0.0726 C   0  0  0  0  0  0  0  0  0  0  0  0
    0.8253    4.0621    0.4144 C   0  0  0  0  0  0  0  0  0  0  0  0
   -0.0364    5.1561    0.1562 C   0  0  0  0  0  0  0  0  0  0  0  0
   -1.1380    4.6567   -0.4927 C   0  0  0  0  0  0  0  0  0  0  0  0
   -0.9721    3.3037   -0.6193 N   0  0  0  0  0  0  0  0  0  0  0  0
   -0.1352    0.3892   -0.0547 C   0  0  0  0  0  0  0  0  0  0  0  0
   -2.8622   -1.4054   -0.0550 H   0  0  0  0  0  0  0  0  0  0  0  0
   -0.7357   -2.5484   -0.8811 H   0  0  0  0  0  0  0  0  0  0  0  0
   -0.7522   -2.5183    0.9246 H   0  0  0  0  0  0  0  0  0  0  0  0
    2.1279   -2.1737    0.0711 H   0  0  0  0  0  0  0  0  0  0  0  0
    3.6673   -0.2188    0.0466 H   0  0  0  0  0  0  0  0  0  0  0  0
    2.7920    2.0702   -0.0294 H   0  0  0  0  0  0  0  0  0  0  0  0
    1.7750    4.1157    0.9303 H   0  0  0  0  0  0  0  0  0  0  0  0
    0.1220    6.1909    0.4285 H   0  0  0  0  0  0  0  0  0  0  0  0
   -2.0385    5.1340   -0.8545 H   0  0  0  0  0  0  0  0  0  0  0  0
   -1.6720    2.6681   -0.9898 H   0  0  0  0  0  0  0  0  0  0  0  0
  1  2  2  0  0  0  0
  2  3  1  0  0  0  0
  2 15  1  0  0  0  0
  3  4  1  0  0  0  0
  3 16  1  0  0  0  0
  4  5  1  0  0  0  0
  4 17  1  0  0  0  0
  4 18  1  0  0  0  0
  5  6  1  0  0  0  0
  5 15  2  0  0  0  0
  6  7  2  0  0  0  0
  6 19  1  0  0  0  0
  7  8  1  0  0  0  0
  7 20  1  0  0  0  0
  8  9  2  0  0  0  0
  8 21  1  0  0  0  0
  9 10  1  0  0  0  0
  9 15  1  0  0  0  0
 10 11  2  0  0  0  0
 10 14  1  0  0  0  0
 11 12  1  0  0  0  0
 11 22  1  0  0  0  0
 12 13  2  0  0  0  0
 12 23  1  0  0  0  0
 13 14  1  0  0  0  0
 13 24  1  0  0  0  0
 14 25  1  0  0  0  0
M  END
$$$$
