CHEMBL3973002
 OpenBabel04072215373D

 58 61  0  0  0  0  0  0  0  0999 V2000
    3.0950   -0.2285   -1.1854 C   0  0  0  0  0  0  0  0  0  0  0  0
    4.7856    0.2509   -1.4947 S   0  0  0  0  0  0  0  0  0  0  0  0
    5.6397   -0.6210   -0.7180 O   0  0  0  0  0  0  0  0  0  0  0  0
    4.9755    0.4093   -2.9249 O   0  0  0  0  0  0  0  0  0  0  0  0
    4.8806    1.8691   -0.7731 C   0  0  0  0  0  0  0  0  0  0  0  0
    4.0594    2.8622   -1.2995 C   0  0  0  0  0  0  0  0  0  0  0  0
    3.9476    4.1120   -0.6874 C   0  0  0  0  0  0  0  0  0  0  0  0
    3.0306    5.0984   -1.1441 N   0  0  0  0  0  0  0  0  0  0  0  0
    2.0353    4.8550   -2.0767 C   0  0  0  0  0  0  0  0  0  0  0  0
    1.7971    3.7513   -2.5586 O   0  0  0  0  0  0  0  0  0  0  0  0
    1.3243    5.9905   -2.4462 N   0  0  0  0  0  0  0  0  0  0  0  0
    0.2993    5.8512   -3.4239 C   0  0  0  0  0  0  0  0  0  0  0  0
   -0.6092    4.7847   -3.3586 C   0  0  0  0  0  0  0  0  0  0  0  0
   -1.4910    4.5246   -4.4085 C   0  0  0  0  0  0  0  0  0  0  0  0
   -1.5413    5.3831   -5.5071 C   0  0  0  0  0  0  0  0  0  0  0  0
   -2.3924    5.1930   -6.5798 O   0  0  0  0  0  0  0  0  0  0  0  0
   -3.6721    4.7217   -6.3547 C   0  0  0  0  0  0  0  0  0  0  0  0
   -4.3821    4.9740   -5.1832 C   0  0  0  0  0  0  0  0  0  0  0  0
   -5.6240    4.3966   -5.0457 C   0  0  0  0  0  0  0  0  0  0  0  0
   -6.2086    3.6644   -6.0099 N   0  0  0  0  0  0  0  0  0  0  0  0
   -5.5673    3.4865   -7.1777 C   0  0  0  0  0  0  0  0  0  0  0  0
   -6.2111    2.7787   -8.2134 N   0  0  0  0  0  0  0  0  0  0  0  0
   -7.4823    2.2507   -8.1019 C   0  0  0  0  0  0  0  0  0  0  0  0
   -8.2141    2.2778   -7.1217 O   0  0  0  0  0  0  0  0  0  0  0  0
   -8.0417    1.5787   -9.3143 C   0  0  0  0  0  0  0  0  0  0  0  0
   -7.3242    1.2560  -10.5967 C   0  0  0  0  0  0  0  0  0  0  0  0
   -8.3002    2.3970  -10.5587 C   0  0  0  0  0  0  0  0  0  0  0  0
   -4.2862    3.9946   -7.3855 C   0  0  0  0  0  0  0  0  0  0  0  0
   -0.6461    6.4571   -5.5579 C   0  0  0  0  0  0  0  0  0  0  0  0
   -0.6177    7.2546   -6.6362 F   0  0  0  0  0  0  0  0  0  0  0  0
    0.2573    6.7120   -4.5181 C   0  0  0  0  0  0  0  0  0  0  0  0
    4.7586    4.3768    0.4241 C   0  0  0  0  0  0  0  0  0  0  0  0
    5.6403    3.3920    0.9328 C   0  0  0  0  0  0  0  0  0  0  0  0
    6.5100    3.6520    2.1408 C   0  0  0  0  0  0  0  0  0  0  0  0
    6.3220    4.8831    2.6894 F   0  0  0  0  0  0  0  0  0  0  0  0
    6.2788    2.7576    3.1412 F   0  0  0  0  0  0  0  0  0  0  0  0
    7.8375    3.5640    1.8565 F   0  0  0  0  0  0  0  0  0  0  0  0
    5.6911    2.1268    0.3245 C   0  0  0  0  0  0  0  0  0  0  0  0
    2.9435   -1.2326   -1.5841 H   0  0  0  0  0  0  0  0  0  0  0  0
    2.4157    0.4681   -1.6810 H   0  0  0  0  0  0  0  0  0  0  0  0
    2.9227   -0.2276   -0.1066 H   0  0  0  0  0  0  0  0  0  0  0  0
    3.5064    2.6099   -2.1975 H   0  0  0  0  0  0  0  0  0  0  0  0
    2.9746    5.9639   -0.6260 H   0  0  0  0  0  0  0  0  0  0  0  0
    1.8639    6.8446   -2.4693 H   0  0  0  0  0  0  0  0  0  0  0  0
   -0.6078    4.1082   -2.5053 H   0  0  0  0  0  0  0  0  0  0  0  0
   -2.1221    3.6418   -4.3492 H   0  0  0  0  0  0  0  0  0  0  0  0
   -3.9847    5.5732   -4.3752 H   0  0  0  0  0  0  0  0  0  0  0  0
   -6.2008    4.4984   -4.1337 H   0  0  0  0  0  0  0  0  0  0  0  0
   -5.7234    2.6946   -9.0895 H   0  0  0  0  0  0  0  0  0  0  0  0
   -8.8269    0.8741   -9.0417 H   0  0  0  0  0  0  0  0  0  0  0  0
   -7.6327    0.3544  -11.1192 H   0  0  0  0  0  0  0  0  0  0  0  0
   -6.2732    1.4764  -10.7138 H   0  0  0  0  0  0  0  0  0  0  0  0
   -9.2670    2.2743  -11.0358 H   0  0  0  0  0  0  0  0  0  0  0  0
   -7.9137    3.4082  -10.6062 H   0  0  0  0  0  0  0  0  0  0  0  0
   -3.7546    3.8365   -8.3149 H   0  0  0  0  0  0  0  0  0  0  0  0
    0.9620    7.5291   -4.6271 H   0  0  0  0  0  0  0  0  0  0  0  0
    4.7094    5.3455    0.9192 H   0  0  0  0  0  0  0  0  0  0  0  0
    6.3502    1.3524    0.7170 H   0  0  0  0  0  0  0  0  0  0  0  0
  1  2  1  0  0  0  0
  1 39  1  0  0  0  0
  1 40  1  0  0  0  0
  1 41  1  0  0  0  0
  2  3  2  0  0  0  0
  2  4  2  0  0  0  0
  2  5  1  0  0  0  0
  5  6  1  0  0  0  0
  5 38  2  0  0  0  0
  6  7  2  0  0  0  0
  6 42  1  0  0  0  0
  7  8  1  0  0  0  0
  7 32  1  0  0  0  0
  8  9  1  0  0  0  0
  8 43  1  0  0  0  0
  9 10  2  0  0  0  0
  9 11  1  0  0  0  0
 11 12  1  0  0  0  0
 11 44  1  0  0  0  0
 12 13  1  0  0  0  0
 12 31  2  0  0  0  0
 13 14  2  0  0  0  0
 13 45  1  0  0  0  0
 14 15  1  0  0  0  0
 14 46  1  0  0  0  0
 15 16  1  0  0  0  0
 15 29  2  0  0  0  0
 16 17  1  0  0  0  0
 17 18  1  0  0  0  0
 17 28  2  0  0  0  0
 18 19  2  0  0  0  0
 18 47  1  0  0  0  0
 19 20  1  0  0  0  0
 19 48  1  0  0  0  0
 20 21  2  0  0  0  0
 21 22  1  0  0  0  0
 21 28  1  0  0  0  0
 22 23  1  0  0  0  0
 22 49  1  0  0  0  0
 23 24  2  0  0  0  0
 23 25  1  0  0  0  0
 25 26  1  0  0  0  0
 25 27  1  0  0  0  0
 25 50  1  0  0  0  0
 26 27  1  0  0  0  0
 26 51  1  0  0  0  0
 26 52  1  0  0  0  0
 27 53  1  0  0  0  0
 27 54  1  0  0  0  0
 28 55  1  0  0  0  0
 29 30  1  0  0  0  0
 29 31  1  0  0  0  0
 31 56  1  0  0  0  0
 32 33  2  0  0  0  0
 32 57  1  0  0  0  0
 33 34  1  0  0  0  0
 33 38  1  0  0  0  0
 34 35  1  0  0  0  0
 34 36  1  0  0  0  0
 34 37  1  0  0  0  0
 38 58  1  0  0  0  0
M  END
$$$$
