CHEMBL4459052
 OpenBabel04072215383D

 48 51  0  0  0  0  0  0  0  0999 V2000
    0.9595   -0.0138   -0.1705 O   0  0  0  0  0  0  0  0  0  0  0  0
    2.1651   -0.0932    0.0403 C   0  0  0  0  0  0  0  0  0  0  0  0
    2.8694    0.6307    0.9827 N   0  0  0  0  0  0  0  0  0  0  0  0
    2.2777    1.5506    1.8289 C   0  0  0  0  0  0  0  0  0  0  0  0
    0.9486    1.9935    1.9536 C   0  0  0  0  0  0  0  0  0  0  0  0
    0.8008    2.9039    2.9194 N   0  0  0  0  0  0  0  0  0  0  0  0
    2.0495    3.0741    3.4240 N   0  0  0  0  0  0  0  0  0  0  0  0
    2.2976    3.9955    4.4802 C   0  0  0  0  0  0  0  0  0  0  0  0
    1.2315    4.7173    5.0392 C   0  0  0  0  0  0  0  0  0  0  0  0
    1.4614    5.6056    6.0927 C   0  0  0  0  0  0  0  0  0  0  0  0
    2.7512    5.7832    6.5895 C   0  0  0  0  0  0  0  0  0  0  0  0
    3.8158    5.0806    6.0293 C   0  0  0  0  0  0  0  0  0  0  0  0
    3.5943    4.1906    4.9762 C   0  0  0  0  0  0  0  0  0  0  0  0
    2.9626    2.2574    2.7857 C   0  0  0  0  0  0  0  0  0  0  0  0
    2.9739   -1.0126   -0.8012 C   0  0  0  0  0  0  0  0  0  0  0  0
    2.5824   -1.1882   -2.1352 C   0  0  0  0  0  0  0  0  0  0  0  0
    3.3092   -2.0314   -2.9734 C   0  0  0  0  0  0  0  0  0  0  0  0
    4.4384   -2.6873   -2.4848 C   0  0  0  0  0  0  0  0  0  0  0  0
    4.8272   -2.5172   -1.1556 C   0  0  0  0  0  0  0  0  0  0  0  0
    5.9980   -3.1689   -0.6943 N   0  0  0  0  0  0  0  0  0  0  0  0
    7.5029   -2.4269   -0.8626 S   0  0  0  0  0  0  0  0  0  0  0  0
    8.4642   -3.3225   -0.2599 O   0  0  0  0  0  0  0  0  0  0  0  0
    7.6532   -1.9621   -2.2260 O   0  0  0  0  0  0  0  0  0  0  0  0
    7.3692   -0.9963    0.1908 C   0  0  0  0  0  0  0  0  0  0  0  0
    7.7925   -1.0782    1.5218 C   0  0  0  0  0  0  0  0  0  0  0  0
    7.7225    0.0526    2.3373 C   0  0  0  0  0  0  0  0  0  0  0  0
    7.2440    1.2587    1.8215 C   0  0  0  0  0  0  0  0  0  0  0  0
    6.8338    1.3399    0.4890 C   0  0  0  0  0  0  0  0  0  0  0  0
    6.9021    0.2144   -0.3331 C   0  0  0  0  0  0  0  0  0  0  0  0
    4.0864   -1.7025   -0.3000 C   0  0  0  0  0  0  0  0  0  0  0  0
    3.8753    0.5427    1.0435 H   0  0  0  0  0  0  0  0  0  0  0  0
    0.0787    1.6982    1.3798 H   0  0  0  0  0  0  0  0  0  0  0  0
    0.2148    4.5945    4.6687 H   0  0  0  0  0  0  0  0  0  0  0  0
    0.6309    6.1577    6.5268 H   0  0  0  0  0  0  0  0  0  0  0  0
    2.9268    6.4690    7.4144 H   0  0  0  0  0  0  0  0  0  0  0  0
    4.8224    5.2248    6.4142 H   0  0  0  0  0  0  0  0  0  0  0  0
    4.4547    3.6718    4.5686 H   0  0  0  0  0  0  0  0  0  0  0  0
    4.0028    2.2388    3.0654 H   0  0  0  0  0  0  0  0  0  0  0  0
    1.7102   -0.6636   -2.5229 H   0  0  0  0  0  0  0  0  0  0  0  0
    2.9988   -2.1712   -4.0061 H   0  0  0  0  0  0  0  0  0  0  0  0
    5.0072   -3.3398   -3.1444 H   0  0  0  0  0  0  0  0  0  0  0  0
    5.9374   -3.8434    0.0640 H   0  0  0  0  0  0  0  0  0  0  0  0
    8.1937   -2.0059    1.9255 H   0  0  0  0  0  0  0  0  0  0  0  0
    8.0615   -0.0002    3.3698 H   0  0  0  0  0  0  0  0  0  0  0  0
    7.2151    2.1438    2.4535 H   0  0  0  0  0  0  0  0  0  0  0  0
    6.4846    2.2882    0.0854 H   0  0  0  0  0  0  0  0  0  0  0  0
    6.6007    0.2876   -1.3768 H   0  0  0  0  0  0  0  0  0  0  0  0
    4.3722   -1.6129    0.7429 H   0  0  0  0  0  0  0  0  0  0  0  0
  1  2  2  0  0  0  0
  2  3  1  0  0  0  0
  2 15  1  0  0  0  0
  3  4  1  0  0  0  0
  3 31  1  0  0  0  0
  4  5  1  0  0  0  0
  4 14  2  0  0  0  0
  5  6  2  0  0  0  0
  5 32  1  0  0  0  0
  6  7  1  0  0  0  0
  7  8  1  0  0  0  0
  7 14  1  0  0  0  0
  8  9  1  0  0  0  0
  8 13  2  0  0  0  0
  9 10  2  0  0  0  0
  9 33  1  0  0  0  0
 10 11  1  0  0  0  0
 10 34  1  0  0  0  0
 11 12  2  0  0  0  0
 11 35  1  0  0  0  0
 12 13  1  0  0  0  0
 12 36  1  0  0  0  0
 13 37  1  0  0  0  0
 14 38  1  0  0  0  0
 15 16  1  0  0  0  0
 15 30  2  0  0  0  0
 16 17  2  0  0  0  0
 16 39  1  0  0  0  0
 17 18  1  0  0  0  0
 17 40  1  0  0  0  0
 18 19  2  0  0  0  0
 18 41  1  0  0  0  0
 19 20  1  0  0  0  0
 19 30  1  0  0  0  0
 20 21  1  0  0  0  0
 20 42  1  0  0  0  0
 21 22  2  0  0  0  0
 21 23  2  0  0  0  0
 21 24  1  0  0  0  0
 24 25  1  0  0  0  0
 24 29  2  0  0  0  0
 25 26  2  0  0  0  0
 25 43  1  0  0  0  0
 26 27  1  0  0  0  0
 26 44  1  0  0  0  0
 27 28  2  0  0  0  0
 27 45  1  0  0  0  0
 28 29  1  0  0  0  0
 28 46  1  0  0  0  0
 29 47  1  0  0  0  0
 30 48  1  0  0  0  0
M  END
$$$$
