CHEMBL3753886
 OpenBabel04072215373D

 40 42  0  0  0  0  0  0  0  0999 V2000
    1.0903    0.1448   -0.0323 O   0  0  0  0  0  0  0  0  0  0  0  0
    2.2877   -0.0847    0.0449 C   0  0  0  0  0  0  0  0  0  0  0  0
    2.9351   -1.2092   -0.4376 N   0  0  0  0  0  0  0  0  0  0  0  0
    2.3428   -2.3225   -1.0655 C   0  0  0  0  0  0  0  0  0  0  0  0
    1.0407   -2.3413   -1.5484 C   0  0  0  0  0  0  0  0  0  0  0  0
    0.5563   -3.5083   -2.1140 C   0  0  0  0  0  0  0  0  0  0  0  0
    1.2779   -4.6466   -2.2278 N   0  0  0  0  0  0  0  0  0  0  0  0
    2.5362   -4.6084   -1.7595 C   0  0  0  0  0  0  0  0  0  0  0  0
    3.1128   -3.4847   -1.1810 C   0  0  0  0  0  0  0  0  0  0  0  0
    3.0745    0.7714    0.7861 N   0  0  0  0  0  0  0  0  0  0  0  0
    4.4736    0.7973    0.8780 C   0  0  0  0  0  0  0  0  0  0  0  0
    5.2188    0.8598   -0.3147 C   0  0  0  0  0  0  0  0  0  0  0  0
    6.6124    1.0499   -0.3201 C   0  0  0  0  0  0  0  0  0  0  0  0
    7.3563    1.2025   -1.5932 C   0  0  0  0  0  0  0  0  0  0  0  0
    6.7976    1.8476   -2.7066 C   0  0  0  0  0  0  0  0  0  0  0  0
    7.5011    1.9500   -3.9064 C   0  0  0  0  0  0  0  0  0  0  0  0
    8.7743    1.4137   -3.9629 C   0  0  0  0  0  0  0  0  0  0  0  0
    9.3699    0.8033   -2.9220 N   0  0  0  0  0  0  0  0  0  0  0  0
    8.6526    0.7128   -1.7726 C   0  0  0  0  0  0  0  0  0  0  0  0
    7.2473    1.1287    0.9273 C   0  0  0  0  0  0  0  0  0  0  0  0
    6.5156    1.0415    2.1201 C   0  0  0  0  0  0  0  0  0  0  0  0
    5.1280    0.8766    2.1082 C   0  0  0  0  0  0  0  0  0  0  0  0
    4.5626    0.8428    3.3481 O   0  0  0  0  0  0  0  0  0  0  0  0
    3.5116   -0.0761    3.6184 C   0  0  0  0  0  0  0  0  0  0  0  0
    3.3204   -0.9950    2.6509 F   0  0  0  0  0  0  0  0  0  0  0  0
    3.8053   -0.7423    4.7571 F   0  0  0  0  0  0  0  0  0  0  0  0
    2.3694    0.6164    3.8140 F   0  0  0  0  0  0  0  0  0  0  0  0
    3.8719   -1.3468   -0.0896 H   0  0  0  0  0  0  0  0  0  0  0  0
    0.3885   -1.4766   -1.5042 H   0  0  0  0  0  0  0  0  0  0  0  0
   -0.4571   -3.5624   -2.4990 H   0  0  0  0  0  0  0  0  0  0  0  0
    3.0956   -5.5373   -1.8526 H   0  0  0  0  0  0  0  0  0  0  0  0
    4.1318   -3.5375   -0.8178 H   0  0  0  0  0  0  0  0  0  0  0  0
    2.5287    1.3274    1.4332 H   0  0  0  0  0  0  0  0  0  0  0  0
    4.6843    0.8225   -1.2647 H   0  0  0  0  0  0  0  0  0  0  0  0
    5.8053    2.2898   -2.6571 H   0  0  0  0  0  0  0  0  0  0  0  0
    7.0657    2.4373   -4.7701 H   0  0  0  0  0  0  0  0  0  0  0  0
    9.3631    1.4650   -4.8755 H   0  0  0  0  0  0  0  0  0  0  0  0
    9.1800    0.1978   -0.9737 H   0  0  0  0  0  0  0  0  0  0  0  0
    8.3216    1.2925    0.9986 H   0  0  0  0  0  0  0  0  0  0  0  0
    7.0434    1.1123    3.0697 H   0  0  0  0  0  0  0  0  0  0  0  0
  1  2  2  0  0  0  0
  2  3  1  0  0  0  0
  2 10  1  0  0  0  0
  3  4  1  0  0  0  0
  3 28  1  0  0  0  0
  4  5  1  0  0  0  0
  4  9  2  0  0  0  0
  5  6  2  0  0  0  0
  5 29  1  0  0  0  0
  6  7  1  0  0  0  0
  6 30  1  0  0  0  0
  7  8  2  0  0  0  0
  8  9  1  0  0  0  0
  8 31  1  0  0  0  0
  9 32  1  0  0  0  0
 10 11  1  0  0  0  0
 10 33  1  0  0  0  0
 11 12  1  0  0  0  0
 11 22  2  0  0  0  0
 12 13  2  0  0  0  0
 12 34  1  0  0  0  0
 13 14  1  0  0  0  0
 13 20  1  0  0  0  0
 14 15  1  0  0  0  0
 14 19  2  0  0  0  0
 15 16  2  0  0  0  0
 15 35  1  0  0  0  0
 16 17  1  0  0  0  0
 16 36  1  0  0  0  0
 17 18  2  0  0  0  0
 17 37  1  0  0  0  0
 18 19  1  0  0  0  0
 19 38  1  0  0  0  0
 20 21  2  0  0  0  0
 20 39  1  0  0  0  0
 21 22  1  0  0  0  0
 21 40  1  0  0  0  0
 22 23  1  0  0  0  0
 23 24  1  0  0  0  0
 24 25  1  0  0  0  0
 24 26  1  0  0  0  0
 24 27  1  0  0  0  0
M  END
$$$$
