CHEMBL3690450
 OpenBabel04072215373D

 54 58  0  0  0  0  0  0  0  0999 V2000
    3.5809   -0.4444    3.2927 O   0  0  0  0  0  0  0  0  0  0  0  0
    3.7679   -1.6528    3.2553 C   0  0  0  0  0  0  0  0  0  0  0  0
    3.2602   -2.4898    4.2293 N   0  0  0  0  0  0  0  0  0  0  0  0
    2.5849   -1.8976    5.3892 C   0  0  0  0  0  0  0  0  0  0  0  0
    3.5150   -1.4512    6.5258 C   0  0  0  0  0  0  0  0  0  0  0  0
    4.8096   -1.7479    6.2618 F   0  0  0  0  0  0  0  0  0  0  0  0
    3.4278   -0.1299    6.7750 F   0  0  0  0  0  0  0  0  0  0  0  0
    3.1932   -2.1042    7.6703 F   0  0  0  0  0  0  0  0  0  0  0  0
    4.4437   -2.3637    2.2904 N   0  0  0  0  0  0  0  0  0  0  0  0
    5.0903   -1.8554    1.1422 C   0  0  0  0  0  0  0  0  0  0  0  0
    5.1448   -0.5014    0.8193 C   0  0  0  0  0  0  0  0  0  0  0  0
    5.7946   -0.0816   -0.3417 C   0  0  0  0  0  0  0  0  0  0  0  0
    6.4394   -1.0086   -1.1629 C   0  0  0  0  0  0  0  0  0  0  0  0
    6.4388   -2.3714   -0.8429 C   0  0  0  0  0  0  0  0  0  0  0  0
    7.1818   -3.3211   -1.6882 C   0  0  0  0  0  0  0  0  0  0  0  0
    7.3993   -3.2878   -3.0589 C   0  0  0  0  0  0  0  0  0  0  0  0
    8.1658   -4.3358   -3.4922 N   0  0  0  0  0  0  0  0  0  0  0  0
    8.4506   -5.0224   -2.4101 C   0  0  0  0  0  0  0  0  0  0  0  0
    9.2248   -6.2107   -2.2506 C   0  0  0  0  0  0  0  0  0  0  0  0
    9.3962   -6.7570   -1.0258 C   0  0  0  0  0  0  0  0  0  0  0  0
   10.1900   -7.9876   -0.9069 C   0  0  0  0  0  0  0  0  0  0  0  0
   11.5315   -7.9900   -0.6062 C   0  0  0  0  0  0  0  0  0  0  0  0
   12.2572   -9.1150   -0.4070 N   0  0  0  0  0  0  0  0  0  0  0  0
   11.6182  -10.2880   -0.5222 C   0  0  0  0  0  0  0  0  0  0  0  0
   12.3330  -11.4720   -0.2698 N   0  0  0  0  0  0  0  0  0  0  0  0
   13.3932  -11.5748    0.6840 C   0  0  0  0  0  0  0  0  0  0  0  0
   12.7287  -12.8313    1.2619 C   0  0  0  0  0  0  0  0  0  0  0  0
   13.4862  -13.9547    1.2778 F   0  0  0  0  0  0  0  0  0  0  0  0
   12.2116  -12.7014    2.5091 F   0  0  0  0  0  0  0  0  0  0  0  0
   11.7245  -12.7117    0.1112 C   0  0  0  0  0  0  0  0  0  0  0  0
   10.3149  -10.3890   -0.8391 N   0  0  0  0  0  0  0  0  0  0  0  0
    9.6279   -9.2395   -1.0158 C   0  0  0  0  0  0  0  0  0  0  0  0
    8.8054   -6.1163    0.1476 C   0  0  0  0  0  0  0  0  0  0  0  0
    8.0995   -4.9835    0.0042 C   0  0  0  0  0  0  0  0  0  0  0  0
    7.8931   -4.4436   -1.2693 N   0  0  0  0  0  0  0  0  0  0  0  0
    5.7121   -2.7801    0.2889 C   0  0  0  0  0  0  0  0  0  0  0  0
    3.7970   -3.3258    4.4130 H   0  0  0  0  0  0  0  0  0  0  0  0
    1.8912   -2.6599    5.7598 H   0  0  0  0  0  0  0  0  0  0  0  0
    1.9813   -1.0460    5.0553 H   0  0  0  0  0  0  0  0  0  0  0  0
    4.4262   -3.3660    2.3905 H   0  0  0  0  0  0  0  0  0  0  0  0
    4.6817    0.2573    1.4423 H   0  0  0  0  0  0  0  0  0  0  0  0
    5.8067    0.9753   -0.5984 H   0  0  0  0  0  0  0  0  0  0  0  0
    6.9530   -0.6423   -2.0494 H   0  0  0  0  0  0  0  0  0  0  0  0
    7.0311   -2.5521   -3.7623 H   0  0  0  0  0  0  0  0  0  0  0  0
    9.6575   -6.6440   -3.1483 H   0  0  0  0  0  0  0  0  0  0  0  0
   12.0904   -7.0643   -0.4927 H   0  0  0  0  0  0  0  0  0  0  0  0
   13.4638  -10.7399    1.3856 H   0  0  0  0  0  0  0  0  0  0  0  0
   14.3605  -11.7466    0.2016 H   0  0  0  0  0  0  0  0  0  0  0  0
   10.6812  -12.6396    0.4315 H   0  0  0  0  0  0  0  0  0  0  0  0
   11.8246  -13.4704   -0.6699 H   0  0  0  0  0  0  0  0  0  0  0  0
    8.5752   -9.3727   -1.2428 H   0  0  0  0  0  0  0  0  0  0  0  0
    8.9592   -6.5611    1.1262 H   0  0  0  0  0  0  0  0  0  0  0  0
    7.6836   -4.4699    0.8574 H   0  0  0  0  0  0  0  0  0  0  0  0
    5.6211   -3.8402    0.5119 H   0  0  0  0  0  0  0  0  0  0  0  0
  1  2  2  0  0  0  0
  2  3  1  0  0  0  0
  2  9  1  0  0  0  0
  3  4  1  0  0  0  0
  3 37  1  0  0  0  0
  4  5  1  0  0  0  0
  4 38  1  0  0  0  0
  4 39  1  0  0  0  0
  5  6  1  0  0  0  0
  5  7  1  0  0  0  0
  5  8  1  0  0  0  0
  9 10  1  0  0  0  0
  9 40  1  0  0  0  0
 10 11  1  0  0  0  0
 10 36  2  0  0  0  0
 11 12  2  0  0  0  0
 11 41  1  0  0  0  0
 12 13  1  0  0  0  0
 12 42  1  0  0  0  0
 13 14  2  0  0  0  0
 13 43  1  0  0  0  0
 14 15  1  0  0  0  0
 14 36  1  0  0  0  0
 15 16  2  0  0  0  0
 15 35  1  0  0  0  0
 16 17  1  0  0  0  0
 16 44  1  0  0  0  0
 17 18  2  0  0  0  0
 18 19  1  0  0  0  0
 18 35  1  0  0  0  0
 19 20  2  0  0  0  0
 19 45  1  0  0  0  0
 20 21  1  0  0  0  0
 20 33  1  0  0  0  0
 21 22  1  0  0  0  0
 21 32  2  0  0  0  0
 22 23  2  0  0  0  0
 22 46  1  0  0  0  0
 23 24  1  0  0  0  0
 24 25  1  0  0  0  0
 24 31  2  0  0  0  0
 25 26  1  0  0  0  0
 25 30  1  0  0  0  0
 26 27  1  0  0  0  0
 26 47  1  0  0  0  0
 26 48  1  0  0  0  0
 27 28  1  0  0  0  0
 27 29  1  0  0  0  0
 27 30  1  0  0  0  0
 30 49  1  0  0  0  0
 30 50  1  0  0  0  0
 31 32  1  0  0  0  0
 32 51  1  0  0  0  0
 33 34  2  0  0  0  0
 33 52  1  0  0  0  0
 34 35  1  0  0  0  0
 34 53  1  0  0  0  0
 36 54  1  0  0  0  0
M  END
$$$$
