CHEMBL4170879
 OpenBabel04072215383D

 53 57  0  0  0  0  0  0  0  0999 V2000
    1.6985   -0.4911    1.9850 N   0  0  0  0  0  0  0  0  0  0  0  0
    2.8538   -0.3993    1.2383 C   0  0  0  0  0  0  0  0  0  0  0  0
    3.2727   -1.5077    0.6256 N   0  0  0  0  0  0  0  0  0  0  0  0
    4.4111   -1.3974   -0.0825 C   0  0  0  0  0  0  0  0  0  0  0  0
    5.1298   -0.2203   -0.2109 C   0  0  0  0  0  0  0  0  0  0  0  0
    6.3229   -0.1124   -0.9426 C   0  0  0  0  0  0  0  0  0  0  0  0
    7.0012    1.1058   -0.9868 C   0  0  0  0  0  0  0  0  0  0  0  0
    6.5126    2.2342   -0.3093 C   0  0  0  0  0  0  0  0  0  0  0  0
    7.2888    3.5000   -0.2706 C   0  0  0  0  0  0  0  0  0  0  0  0
    8.0791    3.9241   -1.3557 C   0  0  0  0  0  0  0  0  0  0  0  0
    8.8713    5.0803   -1.2840 C   0  0  0  0  0  0  0  0  0  0  0  0
    8.9136    5.8267   -0.1093 C   0  0  0  0  0  0  0  0  0  0  0  0
    9.7592    6.9390    0.0339 N   0  0  0  0  0  0  0  0  0  0  0  0
    9.9238    7.9159   -0.9283 C   0  0  0  0  0  0  0  0  0  0  0  0
    9.3188    8.0034   -1.9883 O   0  0  0  0  0  0  0  0  0  0  0  0
   10.9337    8.9729   -0.5815 C   0  0  0  0  0  0  0  0  0  0  0  0
   12.3007    8.6908   -1.1110 C   0  0  0  0  0  0  0  0  0  0  0  0
   13.0373    7.9849   -0.4247 O   0  0  0  0  0  0  0  0  0  0  0  0
   12.6182    9.2784   -2.3243 N   0  0  0  0  0  0  0  0  0  0  0  0
   13.8650    9.1571   -2.9889 C   0  0  0  0  0  0  0  0  0  0  0  0
   14.7573    8.1183   -2.6914 C   0  0  0  0  0  0  0  0  0  0  0  0
   16.0379    8.0900   -3.2475 C   0  0  0  0  0  0  0  0  0  0  0  0
   16.4323    9.0917   -4.1263 C   0  0  0  0  0  0  0  0  0  0  0  0
   18.0428    9.1046   -4.7305 Cl  0  0  0  0  0  0  0  0  0  0  0  0
   15.5360   10.0857   -4.5058 C   0  0  0  0  0  0  0  0  0  0  0  0
   14.2499   10.1070   -3.9499 C   0  0  0  0  0  0  0  0  0  0  0  0
   13.1749   11.3723   -4.4369 Cl  0  0  0  0  0  0  0  0  0  0  0  0
   10.8411    9.6439    0.7983 C   0  0  0  0  0  0  0  0  0  0  0  0
   10.4759   10.4188   -0.4212 C   0  0  0  0  0  0  0  0  0  0  0  0
    8.1444    5.4285    0.9801 C   0  0  0  0  0  0  0  0  0  0  0  0
    7.3203    4.2991    0.8874 C   0  0  0  0  0  0  0  0  0  0  0  0
    5.2902    2.0850    0.3854 C   0  0  0  0  0  0  0  0  0  0  0  0
    4.5923    0.8791    0.4563 C   0  0  0  0  0  0  0  0  0  0  0  0
    3.4550    0.7937    1.1657 N   0  0  0  0  0  0  0  0  0  0  0  0
    1.1368   -1.2655    1.6612 H   0  0  0  0  0  0  0  0  0  0  0  0
    1.2550    0.4122    2.0628 H   0  0  0  0  0  0  0  0  0  0  0  0
    4.7453   -2.3192   -0.5505 H   0  0  0  0  0  0  0  0  0  0  0  0
    6.7381   -0.9738   -1.4602 H   0  0  0  0  0  0  0  0  0  0  0  0
    7.9414    1.1496   -1.5330 H   0  0  0  0  0  0  0  0  0  0  0  0
    8.1026    3.3521   -2.2812 H   0  0  0  0  0  0  0  0  0  0  0  0
    9.4972    5.3460   -2.1327 H   0  0  0  0  0  0  0  0  0  0  0  0
   10.1505    7.1067    0.9524 H   0  0  0  0  0  0  0  0  0  0  0  0
   11.9640    9.9655   -2.7035 H   0  0  0  0  0  0  0  0  0  0  0  0
   14.4796    7.3055   -2.0269 H   0  0  0  0  0  0  0  0  0  0  0  0
   16.7212    7.2910   -2.9687 H   0  0  0  0  0  0  0  0  0  0  0  0
   15.8448   10.8526   -5.2110 H   0  0  0  0  0  0  0  0  0  0  0  0
   11.7701    9.8935    1.3084 H   0  0  0  0  0  0  0  0  0  0  0  0
   10.0385    9.3745    1.4730 H   0  0  0  0  0  0  0  0  0  0  0  0
   11.1425   11.2253   -0.7067 H   0  0  0  0  0  0  0  0  0  0  0  0
    9.4246   10.6498   -0.5704 H   0  0  0  0  0  0  0  0  0  0  0  0
    8.1351    6.0116    1.8969 H   0  0  0  0  0  0  0  0  0  0  0  0
    6.7195    4.0375    1.7559 H   0  0  0  0  0  0  0  0  0  0  0  0
    4.8589    2.9343    0.9127 H   0  0  0  0  0  0  0  0  0  0  0  0
  1  2  1  0  0  0  0
  1 35  1  0  0  0  0
  1 36  1  0  0  0  0
  2  3  1  0  0  0  0
  2 34  2  0  0  0  0
  3  4  2  0  0  0  0
  4  5  1  0  0  0  0
  4 37  1  0  0  0  0
  5  6  1  0  0  0  0
  5 33  2  0  0  0  0
  6  7  2  0  0  0  0
  6 38  1  0  0  0  0
  7  8  1  0  0  0  0
  7 39  1  0  0  0  0
  8  9  1  0  0  0  0
  8 32  2  0  0  0  0
  9 10  1  0  0  0  0
  9 31  2  0  0  0  0
 10 11  2  0  0  0  0
 10 40  1  0  0  0  0
 11 12  1  0  0  0  0
 11 41  1  0  0  0  0
 12 13  1  0  0  0  0
 12 30  2  0  0  0  0
 13 14  1  0  0  0  0
 13 42  1  0  0  0  0
 14 15  2  0  0  0  0
 14 16  1  0  0  0  0
 16 17  1  0  0  0  0
 16 28  1  0  0  0  0
 16 29  1  0  0  0  0
 17 18  2  0  0  0  0
 17 19  1  0  0  0  0
 19 20  1  0  0  0  0
 19 43  1  0  0  0  0
 20 21  1  0  0  0  0
 20 26  2  0  0  0  0
 21 22  2  0  0  0  0
 21 44  1  0  0  0  0
 22 23  1  0  0  0  0
 22 45  1  0  0  0  0
 23 24  1  0  0  0  0
 23 25  2  0  0  0  0
 25 26  1  0  0  0  0
 25 46  1  0  0  0  0
 26 27  1  0  0  0  0
 28 29  1  0  0  0  0
 28 47  1  0  0  0  0
 28 48  1  0  0  0  0
 29 49  1  0  0  0  0
 29 50  1  0  0  0  0
 30 31  1  0  0  0  0
 30 51  1  0  0  0  0
 31 52  1  0  0  0  0
 32 33  1  0  0  0  0
 32 53  1  0  0  0  0
 33 34  1  0  0  0  0
M  END
$$$$
