CHEMBL458023
 OpenBabel04072215383D

 59 64  0  0  0  0  0  0  0  0999 V2000
    2.6409   11.2967   -1.8709 C   0  0  0  0  0  0  0  0  0  0  0  0
    2.5073   11.0062   -0.4648 N   0  0  0  0  0  0  0  0  0  0  0  0
    2.9944    9.7943   -0.0073 C   0  0  0  0  0  0  0  0  0  0  0  0
    3.3841    9.7962    1.2695 N   0  0  0  0  0  0  0  0  0  0  0  0
    3.8733    8.6460    1.7578 C   0  0  0  0  0  0  0  0  0  0  0  0
    4.0084    7.4954    1.0188 C   0  0  0  0  0  0  0  0  0  0  0  0
    3.6029    7.5655   -0.2976 C   0  0  0  0  0  0  0  0  0  0  0  0
    3.7851    6.4736   -1.2821 C   0  0  0  0  0  0  0  0  0  0  0  0
    4.0956    6.8302   -2.6151 C   0  0  0  0  0  0  0  0  0  0  0  0
    4.3470    5.8727   -3.5927 C   0  0  0  0  0  0  0  0  0  0  0  0
    4.2206    4.5493   -3.2403 C   0  0  0  0  0  0  0  0  0  0  0  0
    3.8873    4.1449   -2.0008 N   0  0  0  0  0  0  0  0  0  0  0  0
    3.7375    5.0891   -1.0294 C   0  0  0  0  0  0  0  0  0  0  0  0
    3.6344    4.6300    0.2888 O   0  0  0  0  0  0  0  0  0  0  0  0
    4.0505    3.3276    0.5698 C   0  0  0  0  0  0  0  0  0  0  0  0
    5.3085    2.8321    0.1796 C   0  0  0  0  0  0  0  0  0  0  0  0
    6.3874    3.6307   -0.4995 C   0  0  0  0  0  0  0  0  0  0  0  0
    5.5905    1.4734    0.3877 C   0  0  0  0  0  0  0  0  0  0  0  0
    4.7059    0.6037    1.0412 C   0  0  0  0  0  0  0  0  0  0  0  0
    5.0023   -0.7912    1.1244 N   0  0  0  0  0  0  0  0  0  0  0  0
    5.7443   -1.5004    0.2413 C   0  0  0  0  0  0  0  0  0  0  0  0
    6.3698   -1.1295   -0.8542 N   0  0  0  0  0  0  0  0  0  0  0  0
    6.9110   -2.2703   -1.3920 C   0  0  0  0  0  0  0  0  0  0  0  0
    7.6561   -2.4418   -2.5685 C   0  0  0  0  0  0  0  0  0  0  0  0
    8.1093   -3.7266   -2.8914 C   0  0  0  0  0  0  0  0  0  0  0  0
    7.8273   -4.8152   -2.0617 C   0  0  0  0  0  0  0  0  0  0  0  0
    7.0772   -4.6626   -0.8891 C   0  0  0  0  0  0  0  0  0  0  0  0
    6.6361   -3.3721   -0.5942 C   0  0  0  0  0  0  0  0  0  0  0  0
    5.8934   -2.8546    0.4356 N   0  0  0  0  0  0  0  0  0  0  0  0
    3.5293    1.1533    1.6336 C   0  0  0  0  0  0  0  0  0  0  0  0
    2.6710    0.4042    2.4839 C   0  0  0  0  0  0  0  0  0  0  0  0
    1.5168    0.9392    3.0402 C   0  0  0  0  0  0  0  0  0  0  0  0
    1.1743    2.2532    2.7601 C   0  0  0  0  0  0  0  0  0  0  0  0
    1.9957    3.0277    1.9369 C   0  0  0  0  0  0  0  0  0  0  0  0
    3.1894    2.5188    1.3735 C   0  0  0  0  0  0  0  0  0  0  0  0
    3.0927    8.7240   -0.8078 N   0  0  0  0  0  0  0  0  0  0  0  0
    2.6236   12.3833   -2.0151 H   0  0  0  0  0  0  0  0  0  0  0  0
    1.7972   10.8820   -2.4315 H   0  0  0  0  0  0  0  0  0  0  0  0
    3.5791   10.9282   -2.2988 H   0  0  0  0  0  0  0  0  0  0  0  0
    2.8490   11.7138    0.1763 H   0  0  0  0  0  0  0  0  0  0  0  0
    4.1841    8.6833    2.7974 H   0  0  0  0  0  0  0  0  0  0  0  0
    4.4509    6.6122    1.4602 H   0  0  0  0  0  0  0  0  0  0  0  0
    4.1808    7.8813   -2.8889 H   0  0  0  0  0  0  0  0  0  0  0  0
    4.6373    6.1596   -4.5967 H   0  0  0  0  0  0  0  0  0  0  0  0
    4.4210    3.7523   -3.9502 H   0  0  0  0  0  0  0  0  0  0  0  0
    6.1900    4.7039   -0.5142 H   0  0  0  0  0  0  0  0  0  0  0  0
    6.5175    3.2794   -1.5296 H   0  0  0  0  0  0  0  0  0  0  0  0
    7.3364    3.5069    0.0319 H   0  0  0  0  0  0  0  0  0  0  0  0
    6.5394    1.0886    0.0171 H   0  0  0  0  0  0  0  0  0  0  0  0
    4.2973   -1.3016    1.6326 H   0  0  0  0  0  0  0  0  0  0  0  0
    7.8669   -1.5916   -3.2064 H   0  0  0  0  0  0  0  0  0  0  0  0
    8.6899   -3.8745   -3.7990 H   0  0  0  0  0  0  0  0  0  0  0  0
    8.1975   -5.8018   -2.3337 H   0  0  0  0  0  0  0  0  0  0  0  0
    6.8555   -5.5093   -0.2489 H   0  0  0  0  0  0  0  0  0  0  0  0
    5.5293   -3.3707    1.2170 H   0  0  0  0  0  0  0  0  0  0  0  0
    2.8991   -0.6190    2.7598 H   0  0  0  0  0  0  0  0  0  0  0  0
    0.8889    0.3363    3.6921 H   0  0  0  0  0  0  0  0  0  0  0  0
    0.2695    2.6820    3.1911 H   0  0  0  0  0  0  0  0  0  0  0  0
    1.7012    4.0590    1.7567 H   0  0  0  0  0  0  0  0  0  0  0  0
  1  2  1  0  0  0  0
  1 37  1  0  0  0  0
  1 38  1  0  0  0  0
  1 39  1  0  0  0  0
  2  3  1  0  0  0  0
  2 40  1  0  0  0  0
  3  4  1  0  0  0  0
  3 36  2  0  0  0  0
  4  5  2  0  0  0  0
  5  6  1  0  0  0  0
  5 41  1  0  0  0  0
  6  7  2  0  0  0  0
  6 42  1  0  0  0  0
  7  8  1  0  0  0  0
  7 36  1  0  0  0  0
  8  9  1  0  0  0  0
  8 13  2  0  0  0  0
  9 10  2  0  0  0  0
  9 43  1  0  0  0  0
 10 11  1  0  0  0  0
 10 44  1  0  0  0  0
 11 12  2  0  0  0  0
 11 45  1  0  0  0  0
 12 13  1  0  0  0  0
 13 14  1  0  0  0  0
 14 15  1  0  0  0  0
 15 16  1  0  0  0  0
 15 35  2  0  0  0  0
 16 17  1  0  0  0  0
 16 18  2  0  0  0  0
 17 46  1  0  0  0  0
 17 47  1  0  0  0  0
 17 48  1  0  0  0  0
 18 19  1  0  0  0  0
 18 49  1  0  0  0  0
 19 20  1  0  0  0  0
 19 30  2  0  0  0  0
 20 21  1  0  0  0  0
 20 50  1  0  0  0  0
 21 22  2  0  0  0  0
 21 29  1  0  0  0  0
 22 23  1  0  0  0  0
 23 24  1  0  0  0  0
 23 28  2  0  0  0  0
 24 25  2  0  0  0  0
 24 51  1  0  0  0  0
 25 26  1  0  0  0  0
 25 52  1  0  0  0  0
 26 27  2  0  0  0  0
 26 53  1  0  0  0  0
 27 28  1  0  0  0  0
 27 54  1  0  0  0  0
 28 29  1  0  0  0  0
 29 55  1  0  0  0  0
 30 31  1  0  0  0  0
 30 35  1  0  0  0  0
 31 32  2  0  0  0  0
 31 56  1  0  0  0  0
 32 33  1  0  0  0  0
 32 57  1  0  0  0  0
 33 34  2  0  0  0  0
 33 58  1  0  0  0  0
 34 35  1  0  0  0  0
 34 59  1  0  0  0  0
M  END
$$$$
