CHEMBL191107
 OpenBabel04072215363D

 55 58  0  0  0  0  0  0  0  0999 V2000
    9.8890   -1.4497    6.2589 Cl  0  0  0  0  0  0  0  0  0  0  0  0
    9.4497   -2.0632    4.7097 C   0  0  0  0  0  0  0  0  0  0  0  0
   10.4229   -2.6107    3.8863 C   0  0  0  0  0  0  0  0  0  0  0  0
   10.0581   -3.1075    2.6378 C   0  0  0  0  0  0  0  0  0  0  0  0
    8.7284   -3.0291    2.2183 C   0  0  0  0  0  0  0  0  0  0  0  0
    7.7394   -2.4429    3.0174 C   0  0  0  0  0  0  0  0  0  0  0  0
    6.3878   -2.3111    2.6285 N   0  0  0  0  0  0  0  0  0  0  0  0
    5.8028   -2.4118    1.3480 C   0  0  0  0  0  0  0  0  0  0  0  0
    4.5361   -1.8670    1.1194 C   0  0  0  0  0  0  0  0  0  0  0  0
    3.9118   -1.8755   -0.0842 N   0  0  0  0  0  0  0  0  0  0  0  0
    4.6022   -2.4812   -1.0774 C   0  0  0  0  0  0  0  0  0  0  0  0
    5.8524   -3.0605   -0.8903 C   0  0  0  0  0  0  0  0  0  0  0  0
    6.6223   -3.7158   -1.9535 C   0  0  0  0  0  0  0  0  0  0  0  0
    7.4590   -4.7985   -1.6852 C   0  0  0  0  0  0  0  0  0  0  0  0
    8.1935   -5.4577   -2.6126 N   0  0  0  0  0  0  0  0  0  0  0  0
    8.1224   -4.9875   -3.8787 C   0  0  0  0  0  0  0  0  0  0  0  0
    7.3577   -3.8940   -4.2838 C   0  0  0  0  0  0  0  0  0  0  0  0
    7.4626   -3.4167   -5.5843 N   0  0  0  0  0  0  0  0  0  0  0  0
    7.1440   -2.0430   -5.9461 C   0  0  0  0  0  0  0  0  0  0  0  0
    8.1200   -1.0767   -5.2624 C   0  0  0  0  0  0  0  0  0  0  0  0
    7.7594    0.3791   -5.5538 C   0  0  0  0  0  0  0  0  0  0  0  0
    8.6078    1.3519   -4.8412 N   0  0  0  0  0  0  0  0  0  0  0  0
    8.5185    1.2668   -3.3628 C   0  0  0  0  0  0  0  0  0  0  0  0
    7.1538    1.7031   -2.8075 C   0  0  0  0  0  0  0  0  0  0  0  0
    6.8383    3.0435   -3.2066 O   0  0  0  0  0  0  0  0  0  0  0  0
    6.8838    3.1906   -4.6319 C   0  0  0  0  0  0  0  0  0  0  0  0
    8.2368    2.7386   -5.2137 C   0  0  0  0  0  0  0  0  0  0  0  0
    6.5935   -3.2772   -3.2871 C   0  0  0  0  0  0  0  0  0  0  0  0
    6.4434   -3.0268    0.3305 N   0  0  0  0  0  0  0  0  0  0  0  0
    8.1187   -1.9880    4.2906 C   0  0  0  0  0  0  0  0  0  0  0  0
   11.4616   -2.6585    4.2056 H   0  0  0  0  0  0  0  0  0  0  0  0
   10.8067   -3.5461    1.9848 H   0  0  0  0  0  0  0  0  0  0  0  0
    8.4983   -3.4378    1.2409 H   0  0  0  0  0  0  0  0  0  0  0  0
    5.8562   -1.7207    3.2558 H   0  0  0  0  0  0  0  0  0  0  0  0
    3.9816   -1.3747    1.9113 H   0  0  0  0  0  0  0  0  0  0  0  0
    4.1011   -2.4926   -2.0391 H   0  0  0  0  0  0  0  0  0  0  0  0
    7.5671   -5.1851   -0.6736 H   0  0  0  0  0  0  0  0  0  0  0  0
    8.7653   -5.5025   -4.5879 H   0  0  0  0  0  0  0  0  0  0  0  0
    7.3134   -4.1183   -6.3051 H   0  0  0  0  0  0  0  0  0  0  0  0
    6.1014   -1.8070   -5.7022 H   0  0  0  0  0  0  0  0  0  0  0  0
    7.2410   -1.9376   -7.0327 H   0  0  0  0  0  0  0  0  0  0  0  0
    9.1447   -1.2874   -5.5877 H   0  0  0  0  0  0  0  0  0  0  0  0
    8.0967   -1.2538   -4.1845 H   0  0  0  0  0  0  0  0  0  0  0  0
    6.6977    0.5322   -5.3340 H   0  0  0  0  0  0  0  0  0  0  0  0
    7.8825    0.5383   -6.6328 H   0  0  0  0  0  0  0  0  0  0  0  0
    9.2877    1.9331   -2.9503 H   0  0  0  0  0  0  0  0  0  0  0  0
    8.7810    0.2710   -2.9949 H   0  0  0  0  0  0  0  0  0  0  0  0
    7.1785    1.6832   -1.7131 H   0  0  0  0  0  0  0  0  0  0  0  0
    6.3497    1.0294   -3.1256 H   0  0  0  0  0  0  0  0  0  0  0  0
    6.7256    4.2498   -4.8561 H   0  0  0  0  0  0  0  0  0  0  0  0
    6.0473    2.6380   -5.0743 H   0  0  0  0  0  0  0  0  0  0  0  0
    9.0210    3.4048   -4.8303 H   0  0  0  0  0  0  0  0  0  0  0  0
    8.2426    2.8570   -6.3031 H   0  0  0  0  0  0  0  0  0  0  0  0
    5.9832   -2.4171   -3.5437 H   0  0  0  0  0  0  0  0  0  0  0  0
    7.3818   -1.5531    4.9597 H   0  0  0  0  0  0  0  0  0  0  0  0
  1  2  1  0  0  0  0
  2  3  1  0  0  0  0
  2 30  2  0  0  0  0
  3  4  2  0  0  0  0
  3 31  1  0  0  0  0
  4  5  1  0  0  0  0
  4 32  1  0  0  0  0
  5  6  2  0  0  0  0
  5 33  1  0  0  0  0
  6  7  1  0  0  0  0
  6 30  1  0  0  0  0
  7  8  1  0  0  0  0
  7 34  1  0  0  0  0
  8  9  1  0  0  0  0
  8 29  2  0  0  0  0
  9 10  2  0  0  0  0
  9 35  1  0  0  0  0
 10 11  1  0  0  0  0
 11 12  2  0  0  0  0
 11 36  1  0  0  0  0
 12 13  1  0  0  0  0
 12 29  1  0  0  0  0
 13 14  1  0  0  0  0
 13 28  2  0  0  0  0
 14 15  2  0  0  0  0
 14 37  1  0  0  0  0
 15 16  1  0  0  0  0
 16 17  2  0  0  0  0
 16 38  1  0  0  0  0
 17 18  1  0  0  0  0
 17 28  1  0  0  0  0
 18 19  1  0  0  0  0
 18 39  1  0  0  0  0
 19 20  1  0  0  0  0
 19 40  1  0  0  0  0
 19 41  1  0  0  0  0
 20 21  1  0  0  0  0
 20 42  1  0  0  0  0
 20 43  1  0  0  0  0
 21 22  1  0  0  0  0
 21 44  1  0  0  0  0
 21 45  1  0  0  0  0
 22 23  1  0  0  0  0
 22 27  1  0  0  0  0
 23 24  1  0  0  0  0
 23 46  1  0  0  0  0
 23 47  1  0  0  0  0
 24 25  1  0  0  0  0
 24 48  1  0  0  0  0
 24 49  1  0  0  0  0
 25 26  1  0  0  0  0
 26 27  1  0  0  0  0
 26 50  1  0  0  0  0
 26 51  1  0  0  0  0
 27 52  1  0  0  0  0
 27 53  1  0  0  0  0
 28 54  1  0  0  0  0
 30 55  1  0  0  0  0
M  END
$$$$
