CHEMBL4645817
 OpenBabel04072215383D

 81 85  0  0  0  0  0  0  0  0999 V2000
    9.2190   -0.3202    6.3155 C   0  0  0  0  0  0  0  0  0  0  0  0
    8.2255   -0.6200    5.2093 C   0  0  0  0  0  0  0  0  0  0  0  0
    6.8511   -0.4914    5.7415 N   0  0  0  0  0  0  0  0  0  0  0  0
    5.6098   -0.7769    4.5949 S   0  0  0  0  0  0  0  0  0  0  0  0
    6.2010   -1.6618    3.6110 O   0  0  0  0  0  0  0  0  0  0  0  0
    4.4268   -1.1363    5.3471 O   0  0  0  0  0  0  0  0  0  0  0  0
    5.3355    0.8702    3.9463 C   0  0  0  0  0  0  0  0  0  0  0  0
    4.9448    1.8201    4.9149 C   0  0  0  0  0  0  0  0  0  0  0  0
    4.8814    3.1768    4.6081 C   0  0  0  0  0  0  0  0  0  0  0  0
    5.2160    3.6036    3.3328 C   0  0  0  0  0  0  0  0  0  0  0  0
    5.5407    2.6638    2.3575 C   0  0  0  0  0  0  0  0  0  0  0  0
    5.5443    1.2777    2.6214 C   0  0  0  0  0  0  0  0  0  0  0  0
    5.7886    0.4868    1.4992 N   0  0  0  0  0  0  0  0  0  0  0  0
    5.2997   -0.7724    1.1800 C   0  0  0  0  0  0  0  0  0  0  0  0
    4.1420   -1.2219    1.6462 N   0  0  0  0  0  0  0  0  0  0  0  0
    3.9331   -2.5128    1.4158 C   0  0  0  0  0  0  0  0  0  0  0  0
    4.7518   -3.3370    0.7706 N   0  0  0  0  0  0  0  0  0  0  0  0
    5.8724   -2.7682    0.3419 C   0  0  0  0  0  0  0  0  0  0  0  0
    6.8460   -3.6199   -0.1650 N   0  0  0  0  0  0  0  0  0  0  0  0
    8.2354   -3.4292   -0.2043 C   0  0  0  0  0  0  0  0  0  0  0  0
    8.8775   -2.2046   -0.3071 C   0  0  0  0  0  0  0  0  0  0  0  0
   10.2655   -2.1339   -0.4682 C   0  0  0  0  0  0  0  0  0  0  0  0
   11.0794   -3.2790   -0.5724 C   0  0  0  0  0  0  0  0  0  0  0  0
   12.3883   -3.1585   -1.0541 N   0  0  0  0  0  0  0  0  0  0  0  0
   12.7391   -1.9393   -1.8144 C   0  0  0  0  0  0  0  0  0  0  0  0
   13.9468   -2.1967   -2.7338 C   0  0  0  0  0  0  0  0  0  0  0  0
   15.1215   -2.6683   -1.9737 N   0  0  0  0  0  0  0  0  0  0  0  0
   16.2512   -2.8889   -2.8714 C   0  0  0  0  0  0  0  0  0  0  0  0
   14.7434   -3.9116   -1.2548 C   0  0  0  0  0  0  0  0  0  0  0  0
   13.5271   -3.7146   -0.3005 C   0  0  0  0  0  0  0  0  0  0  0  0
   10.4420   -4.5169   -0.3274 C   0  0  0  0  0  0  0  0  0  0  0  0
   11.1899   -5.6755   -0.3116 O   0  0  0  0  0  0  0  0  0  0  0  0
   10.5089   -6.8746    0.0998 C   0  0  0  0  0  0  0  0  0  0  0  0
    9.8373   -7.5463   -1.1161 C   0  0  0  0  0  0  0  0  0  0  0  0
    8.8435   -8.5957   -0.8035 N   0  0  0  0  0  0  0  0  0  0  0  0
    9.3898   -9.6857    0.0317 C   0  0  0  0  0  0  0  0  0  0  0  0
   10.4566  -10.5199   -0.6938 C   0  0  0  0  0  0  0  0  0  0  0  0
    9.9468  -11.0802   -1.9116 O   0  0  0  0  0  0  0  0  0  0  0  0
    9.4095  -10.0691   -2.7759 C   0  0  0  0  0  0  0  0  0  0  0  0
    8.3439   -9.2198   -2.0566 C   0  0  0  0  0  0  0  0  0  0  0  0
    9.0406   -4.5616   -0.1882 C   0  0  0  0  0  0  0  0  0  0  0  0
    6.1409   -1.4798    0.4538 N   0  0  0  0  0  0  0  0  0  0  0  0
   10.2406   -0.4939    5.9641 H   0  0  0  0  0  0  0  0  0  0  0  0
    9.0425   -0.9578    7.1882 H   0  0  0  0  0  0  0  0  0  0  0  0
    9.1395    0.7226    6.6392 H   0  0  0  0  0  0  0  0  0  0  0  0
    8.3888   -1.6457    4.8629 H   0  0  0  0  0  0  0  0  0  0  0  0
    8.3786    0.0739    4.3768 H   0  0  0  0  0  0  0  0  0  0  0  0
    6.6987    0.3853    6.2376 H   0  0  0  0  0  0  0  0  0  0  0  0
    4.6848    1.4995    5.9233 H   0  0  0  0  0  0  0  0  0  0  0  0
    4.5813    3.8963    5.3648 H   0  0  0  0  0  0  0  0  0  0  0  0
    5.1937    4.6599    3.0814 H   0  0  0  0  0  0  0  0  0  0  0  0
    5.7531    3.0149    1.3471 H   0  0  0  0  0  0  0  0  0  0  0  0
    6.7349    0.5395    1.1403 H   0  0  0  0  0  0  0  0  0  0  0  0
    3.0255   -2.9443    1.8210 H   0  0  0  0  0  0  0  0  0  0  0  0
    6.5380   -4.5671    0.0159 H   0  0  0  0  0  0  0  0  0  0  0  0
    8.3260   -1.2722   -0.3175 H   0  0  0  0  0  0  0  0  0  0  0  0
   10.6958   -1.1402   -0.5550 H   0  0  0  0  0  0  0  0  0  0  0  0
   12.9686   -1.1158   -1.1251 H   0  0  0  0  0  0  0  0  0  0  0  0
   11.9088   -1.6283   -2.4604 H   0  0  0  0  0  0  0  0  0  0  0  0
   14.1874   -1.2603   -3.2518 H   0  0  0  0  0  0  0  0  0  0  0  0
   13.6629   -2.9313   -3.5001 H   0  0  0  0  0  0  0  0  0  0  0  0
   16.5005   -1.9635   -3.4048 H   0  0  0  0  0  0  0  0  0  0  0  0
   16.0516   -3.6675   -3.6159 H   0  0  0  0  0  0  0  0  0  0  0  0
   17.1427   -3.1697   -2.3014 H   0  0  0  0  0  0  0  0  0  0  0  0
   15.5976   -4.2632   -0.6647 H   0  0  0  0  0  0  0  0  0  0  0  0
   14.4959   -4.7007   -1.9786 H   0  0  0  0  0  0  0  0  0  0  0  0
   13.8093   -3.0192    0.5014 H   0  0  0  0  0  0  0  0  0  0  0  0
   13.2998   -4.6743    0.1701 H   0  0  0  0  0  0  0  0  0  0  0  0
    9.8164   -6.6937    0.9339 H   0  0  0  0  0  0  0  0  0  0  0  0
   11.2709   -7.5453    0.5109 H   0  0  0  0  0  0  0  0  0  0  0  0
   10.6451   -7.9066   -1.7600 H   0  0  0  0  0  0  0  0  0  0  0  0
    9.3290   -6.7860   -1.7220 H   0  0  0  0  0  0  0  0  0  0  0  0
    8.5544  -10.3453    0.3045 H   0  0  0  0  0  0  0  0  0  0  0  0
    9.7760   -9.2966    0.9794 H   0  0  0  0  0  0  0  0  0  0  0  0
   10.7660  -11.3513   -0.0534 H   0  0  0  0  0  0  0  0  0  0  0  0
   11.3517   -9.9265   -0.9124 H   0  0  0  0  0  0  0  0  0  0  0  0
    8.9599  -10.5749   -3.6360 H   0  0  0  0  0  0  0  0  0  0  0  0
   10.2289   -9.4539   -3.1639 H   0  0  0  0  0  0  0  0  0  0  0  0
    7.5009   -9.8732   -1.7929 H   0  0  0  0  0  0  0  0  0  0  0  0
    7.9369   -8.4579   -2.7317 H   0  0  0  0  0  0  0  0  0  0  0  0
    8.5139   -5.5025   -0.0914 H   0  0  0  0  0  0  0  0  0  0  0  0
  1  2  1  0  0  0  0
  1 43  1  0  0  0  0
  1 44  1  0  0  0  0
  1 45  1  0  0  0  0
  2  3  1  0  0  0  0
  2 46  1  0  0  0  0
  2 47  1  0  0  0  0
  3  4  1  0  0  0  0
  3 48  1  0  0  0  0
  4  5  2  0  0  0  0
  4  6  2  0  0  0  0
  4  7  1  0  0  0  0
  7  8  1  0  0  0  0
  7 12  2  0  0  0  0
  8  9  2  0  0  0  0
  8 49  1  0  0  0  0
  9 10  1  0  0  0  0
  9 50  1  0  0  0  0
 10 11  2  0  0  0  0
 10 51  1  0  0  0  0
 11 12  1  0  0  0  0
 11 52  1  0  0  0  0
 12 13  1  0  0  0  0
 13 14  1  0  0  0  0
 13 53  1  0  0  0  0
 14 15  1  0  0  0  0
 14 42  2  0  0  0  0
 15 16  2  0  0  0  0
 16 17  1  0  0  0  0
 16 54  1  0  0  0  0
 17 18  2  0  0  0  0
 18 19  1  0  0  0  0
 18 42  1  0  0  0  0
 19 20  1  0  0  0  0
 19 55  1  0  0  0  0
 20 21  1  0  0  0  0
 20 41  2  0  0  0  0
 21 22  2  0  0  0  0
 21 56  1  0  0  0  0
 22 23  1  0  0  0  0
 22 57  1  0  0  0  0
 23 24  1  0  0  0  0
 23 31  2  0  0  0  0
 24 25  1  0  0  0  0
 24 30  1  0  0  0  0
 25 26  1  0  0  0  0
 25 58  1  0  0  0  0
 25 59  1  0  0  0  0
 26 27  1  0  0  0  0
 26 60  1  0  0  0  0
 26 61  1  0  0  0  0
 27 28  1  0  0  0  0
 27 29  1  0  0  0  0
 28 62  1  0  0  0  0
 28 63  1  0  0  0  0
 28 64  1  0  0  0  0
 29 30  1  0  0  0  0
 29 65  1  0  0  0  0
 29 66  1  0  0  0  0
 30 67  1  0  0  0  0
 30 68  1  0  0  0  0
 31 32  1  0  0  0  0
 31 41  1  0  0  0  0
 32 33  1  0  0  0  0
 33 34  1  0  0  0  0
 33 69  1  0  0  0  0
 33 70  1  0  0  0  0
 34 35  1  0  0  0  0
 34 71  1  0  0  0  0
 34 72  1  0  0  0  0
 35 36  1  0  0  0  0
 35 40  1  0  0  0  0
 36 37  1  0  0  0  0
 36 73  1  0  0  0  0
 36 74  1  0  0  0  0
 37 38  1  0  0  0  0
 37 75  1  0  0  0  0
 37 76  1  0  0  0  0
 38 39  1  0  0  0  0
 39 40  1  0  0  0  0
 39 77  1  0  0  0  0
 39 78  1  0  0  0  0
 40 79  1  0  0  0  0
 40 80  1  0  0  0  0
 41 81  1  0  0  0  0
M  END
$$$$
