CHEMBL2018768
 OpenBabel04072215363D

 61 63  0  0  0  0  0  0  0  0999 V2000
   11.5691    0.5262    1.5772 C   0  0  0  0  0  0  0  0  0  0  0  0
   10.4387    1.3576    0.9773 C   0  0  0  0  0  0  0  0  0  0  0  0
    9.3906    0.5991    0.2607 N   0  0  0  0  0  0  0  0  0  0  0  0
    8.8095   -0.5014    1.0338 C   0  0  0  0  0  0  0  0  0  0  0  0
    7.9605   -0.0979    2.2353 C   0  0  0  0  0  0  0  0  0  0  0  0
    8.4056    1.5526   -0.2959 C   0  0  0  0  0  0  0  0  0  0  0  0
    7.2591    0.9823   -1.1660 C   0  0  0  0  0  0  0  0  0  0  0  0
    6.4833    2.0297   -1.8020 O   0  0  0  0  0  0  0  0  0  0  0  0
    7.1310    2.7902   -2.7457 C   0  0  0  0  0  0  0  0  0  0  0  0
    8.2467    2.2916   -3.4485 C   0  0  0  0  0  0  0  0  0  0  0  0
    9.0375    3.0835   -4.2676 C   0  0  0  0  0  0  0  0  0  0  0  0
   10.1318    2.5546   -4.8219 N   0  0  0  0  0  0  0  0  0  0  0  0
   10.8909    3.3800   -5.5498 C   0  0  0  0  0  0  0  0  0  0  0  0
   10.6673    4.6794   -5.7560 N   0  0  0  0  0  0  0  0  0  0  0  0
    9.5640    5.1948   -5.1876 C   0  0  0  0  0  0  0  0  0  0  0  0
    9.3034    6.5765   -5.2996 N   0  0  0  0  0  0  0  0  0  0  0  0
    9.6682    7.4786   -6.3087 C   0  0  0  0  0  0  0  0  0  0  0  0
    9.4459    8.8415   -6.0923 C   0  0  0  0  0  0  0  0  0  0  0  0
    9.5845    9.7662   -7.1275 C   0  0  0  0  0  0  0  0  0  0  0  0
    9.9232    9.3493   -8.4165 C   0  0  0  0  0  0  0  0  0  0  0  0
    9.9430   10.2416   -9.5097 N   0  0  0  0  0  0  0  0  0  0  0  0
    9.3559   11.4761   -9.5532 C   0  0  0  0  0  0  0  0  0  0  0  0
    8.7507   12.0408   -8.6532 O   0  0  0  0  0  0  0  0  0  0  0  0
    9.5013   12.0003  -10.7997 O   0  0  0  0  0  0  0  0  0  0  0  0
    8.8608   13.2705  -10.9390 C   0  0  0  0  0  0  0  0  0  0  0  0
   10.2081    7.9917   -8.6245 C   0  0  0  0  0  0  0  0  0  0  0  0
   10.6478    7.3958  -10.1895 Cl  0  0  0  0  0  0  0  0  0  0  0  0
   10.0673    7.0690   -7.5843 C   0  0  0  0  0  0  0  0  0  0  0  0
    8.6737    4.4124   -4.4374 C   0  0  0  0  0  0  0  0  0  0  0  0
    7.4651    4.8827   -3.8812 C   0  0  0  0  0  0  0  0  0  0  0  0
    6.6963    4.0903   -3.0243 C   0  0  0  0  0  0  0  0  0  0  0  0
    5.5793    4.7572   -2.6136 O   0  0  0  0  0  0  0  0  0  0  0  0
    4.9882    4.4393   -1.3690 C   0  0  0  0  0  0  0  0  0  0  0  0
   12.3936    1.1836    1.8755 H   0  0  0  0  0  0  0  0  0  0  0  0
   11.9641   -0.1969    0.8570 H   0  0  0  0  0  0  0  0  0  0  0  0
   11.2417   -0.0095    2.4738 H   0  0  0  0  0  0  0  0  0  0  0  0
   10.9055    2.0534    0.2680 H   0  0  0  0  0  0  0  0  0  0  0  0
    9.9971    1.9721    1.7715 H   0  0  0  0  0  0  0  0  0  0  0  0
    9.6046   -1.1757    1.3733 H   0  0  0  0  0  0  0  0  0  0  0  0
    8.2045   -1.1283    0.3673 H   0  0  0  0  0  0  0  0  0  0  0  0
    8.4735    0.6232    2.8770 H   0  0  0  0  0  0  0  0  0  0  0  0
    7.7379   -0.9800    2.8411 H   0  0  0  0  0  0  0  0  0  0  0  0
    7.0089    0.3366    1.9158 H   0  0  0  0  0  0  0  0  0  0  0  0
    8.9735    2.2662   -0.9047 H   0  0  0  0  0  0  0  0  0  0  0  0
    7.9561    2.1563    0.5062 H   0  0  0  0  0  0  0  0  0  0  0  0
    6.5592    0.4364   -0.5258 H   0  0  0  0  0  0  0  0  0  0  0  0
    7.6069    0.2468   -1.9014 H   0  0  0  0  0  0  0  0  0  0  0  0
    8.5650    1.2579   -3.3510 H   0  0  0  0  0  0  0  0  0  0  0  0
   11.7806    2.9594   -6.0050 H   0  0  0  0  0  0  0  0  0  0  0  0
    9.2179    6.9973   -4.3808 H   0  0  0  0  0  0  0  0  0  0  0  0
    9.1243    9.2069   -5.1192 H   0  0  0  0  0  0  0  0  0  0  0  0
    9.4016   10.8109   -6.8941 H   0  0  0  0  0  0  0  0  0  0  0  0
   10.2654    9.8839  -10.4012 H   0  0  0  0  0  0  0  0  0  0  0  0
    8.9040   13.5660  -11.9897 H   0  0  0  0  0  0  0  0  0  0  0  0
    9.3838   14.0229  -10.3396 H   0  0  0  0  0  0  0  0  0  0  0  0
    7.8069   13.2111  -10.6442 H   0  0  0  0  0  0  0  0  0  0  0  0
   10.2322    6.0154   -7.7909 H   0  0  0  0  0  0  0  0  0  0  0  0
    7.1147    5.8894   -4.1055 H   0  0  0  0  0  0  0  0  0  0  0  0
    4.3779    5.3063   -1.0843 H   0  0  0  0  0  0  0  0  0  0  0  0
    5.7302    4.2939   -0.5802 H   0  0  0  0  0  0  0  0  0  0  0  0
    4.3161    3.5848   -1.4685 H   0  0  0  0  0  0  0  0  0  0  0  0
  1  2  1  0  0  0  0
  1 34  1  0  0  0  0
  1 35  1  0  0  0  0
  1 36  1  0  0  0  0
  2  3  1  0  0  0  0
  2 37  1  0  0  0  0
  2 38  1  0  0  0  0
  3  4  1  0  0  0  0
  3  6  1  0  0  0  0
  4  5  1  0  0  0  0
  4 39  1  0  0  0  0
  4 40  1  0  0  0  0
  5 41  1  0  0  0  0
  5 42  1  0  0  0  0
  5 43  1  0  0  0  0
  6  7  1  0  0  0  0
  6 44  1  0  0  0  0
  6 45  1  0  0  0  0
  7  8  1  0  0  0  0
  7 46  1  0  0  0  0
  7 47  1  0  0  0  0
  8  9  1  0  0  0  0
  9 10  1  0  0  0  0
  9 31  2  0  0  0  0
 10 11  2  0  0  0  0
 10 48  1  0  0  0  0
 11 12  1  0  0  0  0
 11 29  1  0  0  0  0
 12 13  2  0  0  0  0
 13 14  1  0  0  0  0
 13 49  1  0  0  0  0
 14 15  2  0  0  0  0
 15 16  1  0  0  0  0
 15 29  1  0  0  0  0
 16 17  1  0  0  0  0
 16 50  1  0  0  0  0
 17 18  1  0  0  0  0
 17 28  2  0  0  0  0
 18 19  2  0  0  0  0
 18 51  1  0  0  0  0
 19 20  1  0  0  0  0
 19 52  1  0  0  0  0
 20 21  1  0  0  0  0
 20 26  2  0  0  0  0
 21 22  1  0  0  0  0
 21 53  1  0  0  0  0
 22 23  2  0  0  0  0
 22 24  1  0  0  0  0
 24 25  1  0  0  0  0
 25 54  1  0  0  0  0
 25 55  1  0  0  0  0
 25 56  1  0  0  0  0
 26 27  1  0  0  0  0
 26 28  1  0  0  0  0
 28 57  1  0  0  0  0
 29 30  2  0  0  0  0
 30 31  1  0  0  0  0
 30 58  1  0  0  0  0
 31 32  1  0  0  0  0
 32 33  1  0  0  0  0
 33 59  1  0  0  0  0
 33 60  1  0  0  0  0
 33 61  1  0  0  0  0
M  END
$$$$
