CHEMBL328644
 OpenBabel04072215363D

 30 32  0  0  0  0  0  0  0  0999 V2000
    0.9941    0.0989    1.7079 C   0  0  0  0  0  0  0  0  0  0  0  0
    0.1894   -1.0310    1.6838 C   0  0  0  0  0  0  0  0  0  0  0  0
   -1.0641   -0.9737    1.0769 C   0  0  0  0  0  0  0  0  0  0  0  0
   -1.5339    0.1947    0.4589 C   0  0  0  0  0  0  0  0  0  0  0  0
   -2.7972    0.2881   -0.1690 N   0  0  0  0  0  0  0  0  0  0  0  0
   -3.7205   -0.7055   -0.2055 C   0  0  0  0  0  0  0  0  0  0  0  0
   -3.8835   -1.6324    0.7099 N   0  0  0  0  0  0  0  0  0  0  0  0
   -4.8078   -2.5589    0.3047 C   0  0  0  0  0  0  0  0  0  0  0  0
   -5.4258   -2.3088   -0.9042 C   0  0  0  0  0  0  0  0  0  0  0  0
   -6.4615   -3.0981   -1.5733 C   0  0  0  0  0  0  0  0  0  0  0  0
   -7.3860   -3.8132   -0.7937 C   0  0  0  0  0  0  0  0  0  0  0  0
   -8.3638   -4.6098   -1.3876 C   0  0  0  0  0  0  0  0  0  0  0  0
   -8.4315   -4.7032   -2.7743 C   0  0  0  0  0  0  0  0  0  0  0  0
   -7.5216   -4.0015   -3.5635 C   0  0  0  0  0  0  0  0  0  0  0  0
   -6.5405   -3.2050   -2.9690 C   0  0  0  0  0  0  0  0  0  0  0  0
   -4.8079   -0.8371   -1.5407 S   0  0  0  0  0  0  0  0  0  0  0  0
   -0.7237    1.3391    0.5363 C   0  0  0  0  0  0  0  0  0  0  0  0
    0.5342    1.2859    1.1475 C   0  0  0  0  0  0  0  0  0  0  0  0
    1.9750    0.0514    2.1726 H   0  0  0  0  0  0  0  0  0  0  0  0
    0.5216   -1.9631    2.1287 H   0  0  0  0  0  0  0  0  0  0  0  0
   -1.6559   -1.8851    1.0808 H   0  0  0  0  0  0  0  0  0  0  0  0
   -2.8080    0.9491   -0.9334 H   0  0  0  0  0  0  0  0  0  0  0  0
   -4.9917   -3.4170    0.9387 H   0  0  0  0  0  0  0  0  0  0  0  0
   -7.3577   -3.7541    0.2928 H   0  0  0  0  0  0  0  0  0  0  0  0
   -9.0674   -5.1560   -0.7654 H   0  0  0  0  0  0  0  0  0  0  0  0
   -9.1913   -5.3255   -3.2396 H   0  0  0  0  0  0  0  0  0  0  0  0
   -7.5714   -4.0793   -4.6468 H   0  0  0  0  0  0  0  0  0  0  0  0
   -5.8311   -2.6879   -3.6106 H   0  0  0  0  0  0  0  0  0  0  0  0
   -1.0671    2.2835    0.1251 H   0  0  0  0  0  0  0  0  0  0  0  0
    1.1560    2.1784    1.1866 H   0  0  0  0  0  0  0  0  0  0  0  0
  1  2  1  0  0  0  0
  1 18  2  0  0  0  0
  1 19  1  0  0  0  0
  2  3  2  0  0  0  0
  2 20  1  0  0  0  0
  3  4  1  0  0  0  0
  3 21  1  0  0  0  0
  4  5  1  0  0  0  0
  4 17  2  0  0  0  0
  5  6  1  0  0  0  0
  5 22  1  0  0  0  0
  6  7  2  0  0  0  0
  6 16  1  0  0  0  0
  7  8  1  0  0  0  0
  8  9  2  0  0  0  0
  8 23  1  0  0  0  0
  9 10  1  0  0  0  0
  9 16  1  0  0  0  0
 10 11  1  0  0  0  0
 10 15  2  0  0  0  0
 11 12  2  0  0  0  0
 11 24  1  0  0  0  0
 12 13  1  0  0  0  0
 12 25  1  0  0  0  0
 13 14  2  0  0  0  0
 13 26  1  0  0  0  0
 14 15  1  0  0  0  0
 14 27  1  0  0  0  0
 15 28  1  0  0  0  0
 17 18  1  0  0  0  0
 17 29  1  0  0  0  0
 18 30  1  0  0  0  0
M  END
$$$$
