CHEMBL1945170
 OpenBabel04072215363D

 54 57  0  0  0  0  0  0  0  0999 V2000
    2.8715   -0.3707   -0.4475 C   0  0  0  0  0  0  0  0  0  0  0  0
    2.4584    0.8899   -1.0662 N   0  0  0  0  0  0  0  0  0  0  0  0
    0.9973    1.0036   -1.0260 C   0  0  0  0  0  0  0  0  0  0  0  0
    3.0769    2.0599   -0.4184 C   0  0  0  0  0  0  0  0  0  0  0  0
    4.6065    2.1279   -0.5528 C   0  0  0  0  0  0  0  0  0  0  0  0
    5.0691    2.1411   -2.0120 C   0  0  0  0  0  0  0  0  0  0  0  0
    6.5684    2.1042   -2.1335 C   0  0  0  0  0  0  0  0  0  0  0  0
    7.2428    0.8763   -2.2034 C   0  0  0  0  0  0  0  0  0  0  0  0
    8.6233    0.8412   -2.3263 C   0  0  0  0  0  0  0  0  0  0  0  0
    9.3624    2.0242   -2.3611 C   0  0  0  0  0  0  0  0  0  0  0  0
    8.7328    3.2713   -2.2606 C   0  0  0  0  0  0  0  0  0  0  0  0
    9.4265    4.4822   -2.1630 N   0  0  0  0  0  0  0  0  0  0  0  0
   10.7682    4.8463   -2.2576 C   0  0  0  0  0  0  0  0  0  0  0  0
   10.9596    6.1778   -2.2518 N   0  0  0  0  0  0  0  0  0  0  0  0
   12.1386    6.6316   -2.6946 C   0  0  0  0  0  0  0  0  0  0  0  0
   13.1144    5.7918   -3.1627 C   0  0  0  0  0  0  0  0  0  0  0  0
   12.9301    4.4465   -2.9241 C   0  0  0  0  0  0  0  0  0  0  0  0
   11.7562    3.9578   -2.4703 N   0  0  0  0  0  0  0  0  0  0  0  0
   13.9209    3.4787   -3.4272 C   0  0  0  0  0  0  0  0  0  0  0  0
   14.7392    2.7473   -2.5514 C   0  0  0  0  0  0  0  0  0  0  0  0
   15.6770    1.8378   -3.0530 C   0  0  0  0  0  0  0  0  0  0  0  0
   15.7302    1.5805   -4.4221 C   0  0  0  0  0  0  0  0  0  0  0  0
   16.8615    0.4368   -5.0343 Cl  0  0  0  0  0  0  0  0  0  0  0  0
   14.9299    2.2955   -5.3089 C   0  0  0  0  0  0  0  0  0  0  0  0
   14.1221    3.3216   -4.8149 C   0  0  0  0  0  0  0  0  0  0  0  0
   13.6366    4.2634   -5.7506 N   0  0  0  0  0  0  0  0  0  0  0  0
   13.5898    5.6275   -5.5460 C   0  0  0  0  0  0  0  0  0  0  0  0
   12.9887    6.6192   -6.7530 S   0  0  0  0  0  0  0  0  0  0  0  0
   14.0941    6.2098   -4.2110 C   0  0  0  0  0  0  0  0  0  0  0  0
    7.3261    3.2937   -2.1632 C   0  0  0  0  0  0  0  0  0  0  0  0
    2.3920   -1.2183   -0.9497 H   0  0  0  0  0  0  0  0  0  0  0  0
    2.6172   -0.4110    0.6171 H   0  0  0  0  0  0  0  0  0  0  0  0
    3.9471   -0.5330   -0.5560 H   0  0  0  0  0  0  0  0  0  0  0  0
    0.5284    0.1442   -1.5184 H   0  0  0  0  0  0  0  0  0  0  0  0
    0.6633    1.8939   -1.5708 H   0  0  0  0  0  0  0  0  0  0  0  0
    0.6163    1.0610    0.0003 H   0  0  0  0  0  0  0  0  0  0  0  0
    2.8132    2.0901    0.6472 H   0  0  0  0  0  0  0  0  0  0  0  0
    2.6691    2.9741   -0.8675 H   0  0  0  0  0  0  0  0  0  0  0  0
    5.0721    1.2975   -0.0077 H   0  0  0  0  0  0  0  0  0  0  0  0
    4.9573    3.0414   -0.0544 H   0  0  0  0  0  0  0  0  0  0  0  0
    4.6807    3.0341   -2.5215 H   0  0  0  0  0  0  0  0  0  0  0  0
    4.6585    1.2821   -2.5558 H   0  0  0  0  0  0  0  0  0  0  0  0
    6.6807   -0.0491   -2.1470 H   0  0  0  0  0  0  0  0  0  0  0  0
    9.1346   -0.1186   -2.3907 H   0  0  0  0  0  0  0  0  0  0  0  0
   10.4366    1.9581   -2.4597 H   0  0  0  0  0  0  0  0  0  0  0  0
    8.8702    5.3223   -2.2447 H   0  0  0  0  0  0  0  0  0  0  0  0
   12.2205    7.7116   -2.7714 H   0  0  0  0  0  0  0  0  0  0  0  0
   14.6849    2.9196   -1.4778 H   0  0  0  0  0  0  0  0  0  0  0  0
   16.3616    1.3352   -2.3734 H   0  0  0  0  0  0  0  0  0  0  0  0
   15.0231    2.1257   -6.3776 H   0  0  0  0  0  0  0  0  0  0  0  0
   13.4819    3.9594   -6.7071 H   0  0  0  0  0  0  0  0  0  0  0  0
   14.1827    7.3025   -4.2562 H   0  0  0  0  0  0  0  0  0  0  0  0
   15.1000    5.8273   -3.9927 H   0  0  0  0  0  0  0  0  0  0  0  0
    6.8052    4.2431   -2.1001 H   0  0  0  0  0  0  0  0  0  0  0  0
  1  2  1  0  0  0  0
  1 31  1  0  0  0  0
  1 32  1  0  0  0  0
  1 33  1  0  0  0  0
  2  3  1  0  0  0  0
  2  4  1  0  0  0  0
  3 34  1  0  0  0  0
  3 35  1  0  0  0  0
  3 36  1  0  0  0  0
  4  5  1  0  0  0  0
  4 37  1  0  0  0  0
  4 38  1  0  0  0  0
  5  6  1  0  0  0  0
  5 39  1  0  0  0  0
  5 40  1  0  0  0  0
  6  7  1  0  0  0  0
  6 41  1  0  0  0  0
  6 42  1  0  0  0  0
  7  8  1  0  0  0  0
  7 30  2  0  0  0  0
  8  9  2  0  0  0  0
  8 43  1  0  0  0  0
  9 10  1  0  0  0  0
  9 44  1  0  0  0  0
 10 11  2  0  0  0  0
 10 45  1  0  0  0  0
 11 12  1  0  0  0  0
 11 30  1  0  0  0  0
 12 13  1  0  0  0  0
 12 46  1  0  0  0  0
 13 14  1  0  0  0  0
 13 18  2  0  0  0  0
 14 15  2  0  0  0  0
 15 16  1  0  0  0  0
 15 47  1  0  0  0  0
 16 17  2  0  0  0  0
 16 29  1  0  0  0  0
 17 18  1  0  0  0  0
 17 19  1  0  0  0  0
 19 20  1  0  0  0  0
 19 25  2  0  0  0  0
 20 21  2  0  0  0  0
 20 48  1  0  0  0  0
 21 22  1  0  0  0  0
 21 49  1  0  0  0  0
 22 23  1  0  0  0  0
 22 24  2  0  0  0  0
 24 25  1  0  0  0  0
 24 50  1  0  0  0  0
 25 26  1  0  0  0  0
 26 27  1  0  0  0  0
 26 51  1  0  0  0  0
 27 28  2  0  0  0  0
 27 29  1  0  0  0  0
 29 52  1  0  0  0  0
 29 53  1  0  0  0  0
 30 54  1  0  0  0  0
M  END
$$$$
