CHEMBL3924422
 OpenBabel04072215373D

 83 87  0  0  0  0  0  0  0  0999 V2000
    0.5158    3.9750   -1.8448 C   0  0  0  0  0  0  0  0  0  0  0  0
    1.8535    3.9877   -2.2138 O   0  0  0  0  0  0  0  0  0  0  0  0
    2.8110    3.1577   -1.7178 C   0  0  0  0  0  0  0  0  0  0  0  0
    2.5061    2.1955   -0.7337 C   0  0  0  0  0  0  0  0  0  0  0  0
    3.4800    1.3278   -0.2570 C   0  0  0  0  0  0  0  0  0  0  0  0
    3.1190    0.4033    0.6737 O   0  0  0  0  0  0  0  0  0  0  0  0
    3.9358   -0.5779    1.1986 C   0  0  0  0  0  0  0  0  0  0  0  0
    4.7824    1.4076   -0.7906 C   0  0  0  0  0  0  0  0  0  0  0  0
    5.1230    2.3223   -1.7993 C   0  0  0  0  0  0  0  0  0  0  0  0
    6.4051    2.2014   -2.4583 N   0  0  0  0  0  0  0  0  0  0  0  0
    6.9307    0.8146   -2.7479 C   0  0  0  0  0  0  0  0  0  0  0  0
    6.0731   -0.4890   -2.7854 C   0  0  0  0  0  0  0  0  0  0  0  0
    5.0853   -0.6888   -3.9619 C   0  0  0  0  0  0  0  0  0  0  0  0
    4.4185   -2.0065   -3.8272 N   0  0  0  0  0  0  0  0  0  0  0  0
    5.2862   -3.2068   -3.8249 C   0  0  0  0  0  0  0  0  0  0  0  0
    4.5100   -4.3096   -4.5566 C   0  0  0  0  0  0  0  0  0  0  0  0
    3.0931   -3.7805   -4.5496 C   0  0  0  0  0  0  0  0  0  0  0  0
    2.3006   -4.3618   -5.5245 F   0  0  0  0  0  0  0  0  0  0  0  0
    2.5204   -3.9685   -3.3010 F   0  0  0  0  0  0  0  0  0  0  0  0
    3.3488   -2.2987   -4.7813 C   0  0  0  0  0  0  0  0  0  0  0  0
    7.4183    3.2549   -2.6855 C   0  0  0  0  0  0  0  0  0  0  0  0
    8.2041    3.0405   -3.8290 C   0  0  0  0  0  0  0  0  0  0  0  0
    9.4228    3.5791   -4.0022 C   0  0  0  0  0  0  0  0  0  0  0  0
    9.9107    4.4801   -3.1204 C   0  0  0  0  0  0  0  0  0  0  0  0
   11.1900    4.8139   -3.2979 N   0  0  0  0  0  0  0  0  0  0  0  0
   11.7505    5.8028   -2.6216 C   0  0  0  0  0  0  0  0  0  0  0  0
   10.9497    6.6424   -1.8575 C   0  0  0  0  0  0  0  0  0  0  0  0
   11.4839    8.0683   -1.9234 C   0  0  0  0  0  0  0  0  0  0  0  0
   11.3276    9.2613   -1.2243 C   0  0  0  0  0  0  0  0  0  0  0  0
   11.9293   10.2741   -1.9208 N   0  0  0  0  0  0  0  0  0  0  0  0
   12.4487    9.7709   -3.0372 N   0  0  0  0  0  0  0  0  0  0  0  0
   12.9214   10.5132   -4.2311 C   0  0  0  0  0  0  0  0  0  0  0  0
   14.3175   11.1891   -4.1934 C   0  0  0  0  0  0  0  0  0  0  0  0
   14.4511   12.1169   -2.9870 C   0  0  0  0  0  0  0  0  0  0  0  0
   15.6985   13.0031   -3.1242 C   0  0  0  0  0  0  0  0  0  0  0  0
   15.6249   13.7853   -4.3026 O   0  0  0  0  0  0  0  0  0  0  0  0
   15.7209   12.9358   -5.4303 C   0  0  0  0  0  0  0  0  0  0  0  0
   14.4953   12.0126   -5.5045 C   0  0  0  0  0  0  0  0  0  0  0  0
   12.2115    8.4631   -3.0591 C   0  0  0  0  0  0  0  0  0  0  0  0
    9.6581    6.2087   -1.4982 N   0  0  0  0  0  0  0  0  0  0  0  0
    9.1227    5.0536   -2.0971 C   0  0  0  0  0  0  0  0  0  0  0  0
    7.8343    4.3774   -1.8204 C   0  0  0  0  0  0  0  0  0  0  0  0
    4.1305    3.2255   -2.2421 C   0  0  0  0  0  0  0  0  0  0  0  0
   -0.9156    0.0722    1.8467 Cl  0  0  0  0  0  0  0  0  0  0  0  0
   -0.0391    4.7376   -2.4269 H   0  0  0  0  0  0  0  0  0  0  0  0
    0.4113    4.2077   -0.7636 H   0  0  0  0  0  0  0  0  0  0  0  0
    0.0637    2.9806   -2.0567 H   0  0  0  0  0  0  0  0  0  0  0  0
    1.5025    2.0994   -0.3357 H   0  0  0  0  0  0  0  0  0  0  0  0
    3.3556   -1.1869    1.9221 H   0  0  0  0  0  0  0  0  0  0  0  0
    4.7917   -0.1131    1.7302 H   0  0  0  0  0  0  0  0  0  0  0  0
    4.3048   -1.2500    0.3929 H   0  0  0  0  0  0  0  0  0  0  0  0
    5.5328    0.7364   -0.4093 H   0  0  0  0  0  0  0  0  0  0  0  0
    7.7717    0.6417   -2.0390 H   0  0  0  0  0  0  0  0  0  0  0  0
    7.3532    0.7275   -3.7526 H   0  0  0  0  0  0  0  0  0  0  0  0
    5.5706   -0.7346   -1.8455 H   0  0  0  0  0  0  0  0  0  0  0  0
    6.8335   -1.2918   -2.9118 H   0  0  0  0  0  0  0  0  0  0  0  0
    5.6109   -0.6218   -4.9428 H   0  0  0  0  0  0  0  0  0  0  0  0
    4.3150    0.1106   -3.9237 H   0  0  0  0  0  0  0  0  0  0  0  0
    5.4487   -3.4941   -2.7648 H   0  0  0  0  0  0  0  0  0  0  0  0
    6.2687   -3.0569   -4.3276 H   0  0  0  0  0  0  0  0  0  0  0  0
    4.6453   -5.3350   -4.1446 H   0  0  0  0  0  0  0  0  0  0  0  0
    4.8434   -4.3166   -5.6184 H   0  0  0  0  0  0  0  0  0  0  0  0
    2.4418   -1.6849   -4.6019 H   0  0  0  0  0  0  0  0  0  0  0  0
    3.7126   -2.1371   -5.8238 H   0  0  0  0  0  0  0  0  0  0  0  0
    7.9367    2.3643   -4.6128 H   0  0  0  0  0  0  0  0  0  0  0  0
   10.0244    3.2758   -4.8412 H   0  0  0  0  0  0  0  0  0  0  0  0
   12.7741    6.0359   -2.8788 H   0  0  0  0  0  0  0  0  0  0  0  0
   10.7787    9.4112   -0.3067 H   0  0  0  0  0  0  0  0  0  0  0  0
   12.1501   11.2810   -4.4526 H   0  0  0  0  0  0  0  0  0  0  0  0
   12.9334    9.8281   -5.1126 H   0  0  0  0  0  0  0  0  0  0  0  0
   15.1365   10.4312   -4.1476 H   0  0  0  0  0  0  0  0  0  0  0  0
   14.5164   11.5041   -2.0617 H   0  0  0  0  0  0  0  0  0  0  0  0
   13.5615   12.7772   -2.9311 H   0  0  0  0  0  0  0  0  0  0  0  0
   16.6422   12.4108   -3.1044 H   0  0  0  0  0  0  0  0  0  0  0  0
   15.7334   13.6873   -2.2521 H   0  0  0  0  0  0  0  0  0  0  0  0
   16.6791   12.3704   -5.4190 H   0  0  0  0  0  0  0  0  0  0  0  0
   15.7444   13.5704   -6.3449 H   0  0  0  0  0  0  0  0  0  0  0  0
   14.5784   11.3451   -6.3924 H   0  0  0  0  0  0  0  0  0  0  0  0
   13.6116   12.6714   -5.6524 H   0  0  0  0  0  0  0  0  0  0  0  0
   12.4714    7.8553   -3.9168 H   0  0  0  0  0  0  0  0  0  0  0  0
    7.2461    4.6661   -0.9524 H   0  0  0  0  0  0  0  0  0  0  0  0
    4.3493    3.9290   -3.0301 H   0  0  0  0  0  0  0  0  0  0  0  0
    0.4355    0.2441    2.0377 H   0  0  0  0  0  0  0  0  0  0  0  0
  1  2  1  0  0  0  0
  1 45  1  0  0  0  0
  1 46  1  0  0  0  0
  1 47  1  0  0  0  0
  2  3  1  0  0  0  0
  3  4  1  0  0  0  0
  3 43  2  0  0  0  0
  4  5  2  0  0  0  0
  4 48  1  0  0  0  0
  5  6  1  0  0  0  0
  5  8  1  0  0  0  0
  6  7  1  0  0  0  0
  7 49  1  0  0  0  0
  7 50  1  0  0  0  0
  7 51  1  0  0  0  0
  8  9  2  0  0  0  0
  8 52  1  0  0  0  0
  9 10  1  0  0  0  0
  9 43  1  0  0  0  0
 10 11  1  0  0  0  0
 10 21  1  0  0  0  0
 11 12  1  0  0  0  0
 11 53  1  0  0  0  0
 11 54  1  0  0  0  0
 12 13  1  0  0  0  0
 12 55  1  0  0  0  0
 12 56  1  0  0  0  0
 13 14  1  0  0  0  0
 13 57  1  0  0  0  0
 13 58  1  0  0  0  0
 14 15  1  0  0  0  0
 14 20  1  0  0  0  0
 15 16  1  0  0  0  0
 15 59  1  0  0  0  0
 15 60  1  0  0  0  0
 16 17  1  0  0  0  0
 16 61  1  0  0  0  0
 16 62  1  0  0  0  0
 17 18  1  0  0  0  0
 17 19  1  0  0  0  0
 17 20  1  0  0  0  0
 20 63  1  0  0  0  0
 20 64  1  0  0  0  0
 21 22  1  0  0  0  0
 21 42  2  0  0  0  0
 22 23  2  0  0  0  0
 22 65  1  0  0  0  0
 23 24  1  0  0  0  0
 23 66  1  0  0  0  0
 24 25  1  0  0  0  0
 24 41  2  0  0  0  0
 25 26  2  0  0  0  0
 26 27  1  0  0  0  0
 26 67  1  0  0  0  0
 27 28  1  0  0  0  0
 27 40  2  0  0  0  0
 28 29  1  0  0  0  0
 28 39  2  0  0  0  0
 29 30  2  0  0  0  0
 29 68  1  0  0  0  0
 30 31  1  0  0  0  0
 31 32  1  0  0  0  0
 31 39  1  0  0  0  0
 32 33  1  0  0  0  0
 32 69  1  0  0  0  0
 32 70  1  0  0  0  0
 33 34  1  0  0  0  0
 33 38  1  0  0  0  0
 33 71  1  0  0  0  0
 34 35  1  0  0  0  0
 34 72  1  0  0  0  0
 34 73  1  0  0  0  0
 35 36  1  0  0  0  0
 35 74  1  0  0  0  0
 35 75  1  0  0  0  0
 36 37  1  0  0  0  0
 37 38  1  0  0  0  0
 37 76  1  0  0  0  0
 37 77  1  0  0  0  0
 38 78  1  0  0  0  0
 38 79  1  0  0  0  0
 39 80  1  0  0  0  0
 40 41  1  0  0  0  0
 41 42  1  0  0  0  0
 42 81  1  0  0  0  0
 43 82  1  0  0  0  0
 44 83  1  0  0  0  0
M  END
$$$$
