CHEMBL3646211
 OpenBabel04072215373D

 64 68  0  0  1  0  0  0  0  0999 V2000
  -11.3244   -9.5263   24.1436 C   0  0  0  0  0  0  0  0  0  0  0  0
  -10.6084   -8.5121   24.8453 O   0  0  0  0  0  0  0  0  0  0  0  0
   -9.2896   -8.3610   24.5032 C   0  0  0  0  0  0  0  0  0  0  0  0
   -8.6244   -9.1009   23.5367 C   0  0  0  0  0  0  0  0  0  0  0  0
   -7.2728   -8.8601   23.2739 C   0  0  0  0  0  0  0  0  0  0  0  0
   -6.5588   -7.8799   23.9608 C   0  0  0  0  0  0  0  0  0  0  0  0
   -5.1884   -7.6156   23.7399 N   0  0  0  0  0  0  0  0  0  0  0  0
   -4.4105   -8.1975   22.7586 C   0  0  0  0  0  0  0  0  0  0  0  0
   -4.8251   -8.9577   21.8895 O   0  0  0  0  0  0  0  0  0  0  0  0
   -3.0666   -7.8592   22.8843 N   0  0  0  0  0  0  0  0  0  0  0  0
   -2.1272   -8.3529   21.9502 C   0  0  0  0  0  0  0  0  0  0  0  0
   -2.4177   -8.3909   20.5866 C   0  0  0  0  0  0  0  0  0  0  0  0
   -1.5650   -9.0477   19.7005 C   0  0  0  0  0  0  0  0  0  0  0  0
   -0.3792   -9.6466   20.1535 C   0  0  0  0  0  0  0  0  0  0  0  0
    0.4485  -10.4252   19.2192 C   0  0  0  0  0  0  0  0  0  0  0  0
    0.6295   -9.9326   17.9422 C   0  0  0  0  0  0  0  0  0  0  0  0
    1.5420  -10.9485   16.9536 S   0  0  0  0  0  0  0  0  0  0  0  0
    1.7241  -12.1440   18.1888 C   0  0  0  0  0  0  0  0  0  0  0  0
    2.3934  -13.3839   18.0846 C   0  0  0  0  0  0  0  0  0  0  0  0
    2.9857  -13.8622   16.8498 C   0  0  0  0  0  0  0  0  0  0  0  0
    2.5573  -13.7920   15.5022 C   0  0  0  0  0  0  0  0  0  0  0  0
    3.3939  -14.4089   14.6607 N   0  0  0  0  0  0  0  0  0  0  0  0
    4.4019  -14.8039   15.4565 N   0  0  0  0  0  0  0  0  0  0  0  0
    5.5686  -15.4324   14.8663 C   0  0  0  0  0  0  0  0  0  0  0  0
    5.3608  -16.9132   14.5406 C   0  0  2  0  0  0  0  0  0  0  0  0
    4.3632  -17.1183   13.5271 O   0  0  0  0  0  0  0  0  0  0  0  0
    4.9928  -17.7549   15.7656 C   0  0  0  0  0  0  0  0  0  0  0  0
    4.9800  -19.1367   15.4122 O   0  0  0  0  0  0  0  0  0  0  0  0
    4.1724  -14.5657   16.7800 C   0  0  0  0  0  0  0  0  0  0  0  0
    2.4525  -14.1266   19.2499 C   0  0  0  0  0  0  0  0  0  0  0  0
    1.9114  -13.7593   20.4215 N   0  0  0  0  0  0  0  0  0  0  0  0
    1.2327  -12.5993   20.5164 C   0  0  0  0  0  0  0  0  0  0  0  0
    0.6774  -12.3916   21.7733 N   0  0  0  0  0  0  0  0  0  0  0  0
    1.1178  -11.7243   19.3958 C   0  0  0  0  0  0  0  0  0  0  0  0
   -0.0360   -9.4875   21.5010 C   0  0  0  0  0  0  0  0  0  0  0  0
   -0.9108   -8.8621   22.4021 C   0  0  0  0  0  0  0  0  0  0  0  0
   -7.2329   -7.1322   24.9413 C   0  0  0  0  0  0  0  0  0  0  0  0
   -8.5921   -7.3776   25.2050 C   0  0  0  0  0  0  0  0  0  0  0  0
  -12.3635   -9.4998   24.4826 H   0  0  0  0  0  0  0  0  0  0  0  0
  -10.9210  -10.5195   24.3714 H   0  0  0  0  0  0  0  0  0  0  0  0
  -11.3254   -9.3398   23.0642 H   0  0  0  0  0  0  0  0  0  0  0  0
   -9.1110   -9.8799   22.9573 H   0  0  0  0  0  0  0  0  0  0  0  0
   -6.8172   -9.4781   22.5091 H   0  0  0  0  0  0  0  0  0  0  0  0
   -4.7718   -6.8570   24.2598 H   0  0  0  0  0  0  0  0  0  0  0  0
   -2.7488   -7.7554   23.8358 H   0  0  0  0  0  0  0  0  0  0  0  0
   -3.3351   -7.9505   20.2003 H   0  0  0  0  0  0  0  0  0  0  0  0
   -1.8687   -9.1086   18.6577 H   0  0  0  0  0  0  0  0  0  0  0  0
    0.2576   -9.0049   17.5274 H   0  0  0  0  0  0  0  0  0  0  0  0
    1.6649  -13.3315   15.0960 H   0  0  0  0  0  0  0  0  0  0  0  0
    6.4015  -15.2995   15.5657 H   0  0  0  0  0  0  0  0  0  0  0  0
    5.7969  -14.8675   13.9546 H   0  0  0  0  0  0  0  0  0  0  0  0
    6.2922  -17.3052   14.1145 H   0  0  0  0  0  0  0  0  0  0  0  0
    3.6541  -16.4533   13.6644 H   0  0  0  0  0  0  0  0  0  0  0  0
    3.9924  -17.5128   16.1356 H   0  0  0  0  0  0  0  0  0  0  0  0
    5.7185  -17.6180   16.5728 H   0  0  0  0  0  0  0  0  0  0  0  0
    4.4499  -19.1939   14.5922 H   0  0  0  0  0  0  0  0  0  0  0  0
    4.8704  -14.8862   17.5415 H   0  0  0  0  0  0  0  0  0  0  0  0
    2.9470  -15.0943   19.2785 H   0  0  0  0  0  0  0  0  0  0  0  0
    0.7738  -13.2499   22.3077 H   0  0  0  0  0  0  0  0  0  0  0  0
   -0.2679  -12.0310   21.7320 H   0  0  0  0  0  0  0  0  0  0  0  0
    0.8990   -9.8919   21.8835 H   0  0  0  0  0  0  0  0  0  0  0  0
   -0.6579   -8.8546   23.4581 H   0  0  0  0  0  0  0  0  0  0  0  0
   -6.7239   -6.3637   25.5069 H   0  0  0  0  0  0  0  0  0  0  0  0
   -9.1031   -6.7844   25.9672 H   0  0  0  0  0  0  0  0  0  0  0  0
  1  2  1  0  0  0  0
  1 39  1  0  0  0  0
  1 40  1  0  0  0  0
  1 41  1  0  0  0  0
  2  3  1  0  0  0  0
  3  4  1  0  0  0  0
  3 38  2  0  0  0  0
  4  5  2  0  0  0  0
  4 42  1  0  0  0  0
  5  6  1  0  0  0  0
  5 43  1  0  0  0  0
  6  7  1  0  0  0  0
  6 37  2  0  0  0  0
  7  8  1  0  0  0  0
  7 44  1  0  0  0  0
  8  9  2  0  0  0  0
  8 10  1  0  0  0  0
 10 11  1  0  0  0  0
 10 45  1  0  0  0  0
 11 12  1  0  0  0  0
 11 36  2  0  0  0  0
 12 13  2  0  0  0  0
 12 46  1  0  0  0  0
 13 14  1  0  0  0  0
 13 47  1  0  0  0  0
 14 15  1  0  0  0  0
 14 35  2  0  0  0  0
 15 16  2  0  0  0  0
 15 34  1  0  0  0  0
 16 17  1  0  0  0  0
 16 48  1  0  0  0  0
 17 18  1  0  0  0  0
 18 19  1  0  0  0  0
 18 34  2  0  0  0  0
 19 20  1  0  0  0  0
 19 30  2  0  0  0  0
 20 21  1  0  0  0  0
 20 29  2  0  0  0  0
 21 22  2  0  0  0  0
 21 49  1  0  0  0  0
 22 23  1  0  0  0  0
 23 24  1  0  0  0  0
 23 29  1  0  0  0  0
 24 50  1  0  0  0  0
 24 51  1  0  0  0  0
 25 27  1  0  0  0  0
 25 26  1  0  0  0  0
 25 24  1  0  0  0  0
 25 52  1  6  0  0  0
 26 53  1  0  0  0  0
 27 28  1  0  0  0  0
 27 54  1  0  0  0  0
 27 55  1  0  0  0  0
 28 56  1  0  0  0  0
 29 57  1  0  0  0  0
 30 31  1  0  0  0  0
 30 58  1  0  0  0  0
 31 32  2  0  0  0  0
 32 33  1  0  0  0  0
 32 34  1  0  0  0  0
 33 59  1  0  0  0  0
 33 60  1  0  0  0  0
 35 36  1  0  0  0  0
 35 61  1  0  0  0  0
 36 62  1  0  0  0  0
 37 38  1  0  0  0  0
 37 63  1  0  0  0  0
 38 64  1  0  0  0  0
M  END
$$$$
