CHEMBL2337366
 OpenBabel04072215363D

 38 41  0  0  0  0  0  0  0  0999 V2000
    1.4497   -3.3618    3.8784 C   0  0  0  0  0  0  0  0  0  0  0  0
    2.5316   -3.0132    3.0140 O   0  0  0  0  0  0  0  0  0  0  0  0
    3.5289   -3.9499    2.8831 C   0  0  0  0  0  0  0  0  0  0  0  0
    3.8074   -4.9354    3.8170 C   0  0  0  0  0  0  0  0  0  0  0  0
    4.8459   -5.8366    3.5827 C   0  0  0  0  0  0  0  0  0  0  0  0
    5.5980   -5.7739    2.4040 C   0  0  0  0  0  0  0  0  0  0  0  0
    5.3232   -4.8112    1.4362 C   0  0  0  0  0  0  0  0  0  0  0  0
    6.0084   -4.7597    0.2128 N   0  0  0  0  0  0  0  0  0  0  0  0
    7.0763   -5.4687   -0.3771 C   0  0  0  0  0  0  0  0  0  0  0  0
    7.2541   -5.1357   -1.6915 N   0  0  0  0  0  0  0  0  0  0  0  0
    8.4366   -4.6002   -2.0164 C   0  0  0  0  0  0  0  0  0  0  0  0
    8.7404   -4.4513   -3.3540 N   0  0  0  0  0  0  0  0  0  0  0  0
    9.3709   -4.2230   -1.1380 N   0  0  0  0  0  0  0  0  0  0  0  0
    9.2152   -4.8437    0.0476 C   0  0  0  0  0  0  0  0  0  0  0  0
   10.2769   -5.1917    0.8662 N   0  0  0  0  0  0  0  0  0  0  0  0
   10.5256   -6.4781    0.4064 C   0  0  0  0  0  0  0  0  0  0  0  0
   11.7344   -7.1068    0.0980 C   0  0  0  0  0  0  0  0  0  0  0  0
   11.6554   -8.3693   -0.4959 C   0  0  0  0  0  0  0  0  0  0  0  0
   10.4190   -8.9987   -0.6832 C   0  0  0  0  0  0  0  0  0  0  0  0
    9.2303   -8.3318   -0.3518 C   0  0  0  0  0  0  0  0  0  0  0  0
    7.7082   -9.0748   -0.5512 Cl  0  0  0  0  0  0  0  0  0  0  0  0
    9.2381   -6.9985    0.1400 C   0  0  0  0  0  0  0  0  0  0  0  0
    8.2717   -5.8532    0.2887 C   0  0  0  0  0  0  0  0  0  0  0  0
    4.3092   -3.8652    1.7166 C   0  0  0  0  0  0  0  0  0  0  0  0
    0.6859   -2.5791    3.8121 H   0  0  0  0  0  0  0  0  0  0  0  0
    1.7664   -3.4132    4.9247 H   0  0  0  0  0  0  0  0  0  0  0  0
    0.9894   -4.3039    3.5619 H   0  0  0  0  0  0  0  0  0  0  0  0
    3.2468   -5.0291    4.7420 H   0  0  0  0  0  0  0  0  0  0  0  0
    5.0646   -6.6091    4.3151 H   0  0  0  0  0  0  0  0  0  0  0  0
    6.3741   -6.5107    2.2432 H   0  0  0  0  0  0  0  0  0  0  0  0
    5.5845   -4.1652   -0.4920 H   0  0  0  0  0  0  0  0  0  0  0  0
    7.9335   -4.1682   -3.8868 H   0  0  0  0  0  0  0  0  0  0  0  0
    9.5967   -3.9279   -3.4543 H   0  0  0  0  0  0  0  0  0  0  0  0
   10.1936   -5.0697    1.8631 H   0  0  0  0  0  0  0  0  0  0  0  0
   12.6834   -6.5884    0.2147 H   0  0  0  0  0  0  0  0  0  0  0  0
   12.5769   -8.8434   -0.8335 H   0  0  0  0  0  0  0  0  0  0  0  0
   10.4021   -9.9973   -1.1149 H   0  0  0  0  0  0  0  0  0  0  0  0
    4.0920   -3.0691    1.0059 H   0  0  0  0  0  0  0  0  0  0  0  0
  1  2  1  0  0  0  0
  1 25  1  0  0  0  0
  1 26  1  0  0  0  0
  1 27  1  0  0  0  0
  2  3  1  0  0  0  0
  3  4  1  0  0  0  0
  3 24  2  0  0  0  0
  4  5  2  0  0  0  0
  4 28  1  0  0  0  0
  5  6  1  0  0  0  0
  5 29  1  0  0  0  0
  6  7  2  0  0  0  0
  6 30  1  0  0  0  0
  7  8  1  0  0  0  0
  7 24  1  0  0  0  0
  8  9  1  0  0  0  0
  8 31  1  0  0  0  0
  9 10  1  0  0  0  0
  9 23  2  0  0  0  0
 10 11  2  0  0  0  0
 11 12  1  0  0  0  0
 11 13  1  0  0  0  0
 12 32  1  0  0  0  0
 12 33  1  0  0  0  0
 13 14  2  0  0  0  0
 14 15  1  0  0  0  0
 14 23  1  0  0  0  0
 15 16  1  0  0  0  0
 15 34  1  0  0  0  0
 16 17  1  0  0  0  0
 16 22  2  0  0  0  0
 17 18  2  0  0  0  0
 17 35  1  0  0  0  0
 18 19  1  0  0  0  0
 18 36  1  0  0  0  0
 19 20  2  0  0  0  0
 19 37  1  0  0  0  0
 20 21  1  0  0  0  0
 20 22  1  0  0  0  0
 22 23  1  0  0  0  0
 24 38  1  0  0  0  0
M  END
$$$$
