CHEMBL3741484
 OpenBabel04072215373D

 65 69  0  0  0  0  0  0  0  0999 V2000
   -7.2479   -1.7962    5.3566 C   0  0  0  0  0  0  0  0  0  0  0  0
   -6.7504   -0.8867    4.2740 C   0  0  0  0  0  0  0  0  0  0  0  0
   -5.6879   -1.2897    3.4560 C   0  0  0  0  0  0  0  0  0  0  0  0
   -5.2245   -0.4366    2.4417 C   0  0  0  0  0  0  0  0  0  0  0  0
   -5.7980    0.8254    2.2038 C   0  0  0  0  0  0  0  0  0  0  0  0
   -5.3547    1.7439    1.1989 N   0  0  0  0  0  0  0  0  0  0  0  0
   -4.3556    1.4607    0.2930 C   0  0  0  0  0  0  0  0  0  0  0  0
   -3.8676    0.3318    0.1896 O   0  0  0  0  0  0  0  0  0  0  0  0
   -3.7970    2.4930   -0.6471 C   0  0  0  0  0  0  0  0  0  0  0  0
   -2.6111    1.9847   -1.2646 C   0  0  0  0  0  0  0  0  0  0  0  0
   -1.7520    2.8151   -1.9579 C   0  0  0  0  0  0  0  0  0  0  0  0
   -2.2566    4.0048   -2.3802 C   0  0  0  0  0  0  0  0  0  0  0  0
   -3.6148    4.1911   -2.1977 C   0  0  0  0  0  0  0  0  0  0  0  0
   -4.2991    5.0193   -3.0420 C   0  0  0  0  0  0  0  0  0  0  0  0
   -4.2610    6.2783   -2.5446 C   0  0  0  0  0  0  0  0  0  0  0  0
   -3.6883    7.0536   -3.4985 O   0  0  0  0  0  0  0  0  0  0  0  0
   -3.2027    8.3142   -3.2976 C   0  0  0  0  0  0  0  0  0  0  0  0
   -2.1116    8.6889   -4.0489 C   0  0  0  0  0  0  0  0  0  0  0  0
   -1.7818   10.0138   -3.9605 C   0  0  0  0  0  0  0  0  0  0  0  0
   -2.4697   10.8837   -3.2061 N   0  0  0  0  0  0  0  0  0  0  0  0
   -3.5475   10.4056   -2.5623 C   0  0  0  0  0  0  0  0  0  0  0  0
   -4.2763   11.3140   -1.8050 N   0  0  0  0  0  0  0  0  0  0  0  0
   -5.6371   11.3399   -1.4757 C   0  0  0  0  0  0  0  0  0  0  0  0
   -6.0455   12.2261   -0.4785 C   0  0  0  0  0  0  0  0  0  0  0  0
   -7.3784   12.2925   -0.0804 C   0  0  0  0  0  0  0  0  0  0  0  0
   -8.3300   11.4609   -0.6691 C   0  0  0  0  0  0  0  0  0  0  0  0
   -7.9526   10.5328   -1.6464 C   0  0  0  0  0  0  0  0  0  0  0  0
   -8.9621    9.5677   -2.2124 C   0  0  0  0  0  0  0  0  0  0  0  0
   -9.8648   10.2306   -3.6113 S   0  0  0  0  0  0  0  0  0  0  0  0
   -8.6608   10.4524   -4.8962 C   0  0  0  0  0  0  0  0  0  0  0  0
  -10.7547    9.1742   -4.0670 O   0  0  0  0  0  0  0  0  0  0  0  0
  -10.4071   11.5344   -3.2765 O   0  0  0  0  0  0  0  0  0  0  0  0
   -6.5997   10.4748   -2.0288 C   0  0  0  0  0  0  0  0  0  0  0  0
   -3.9506    9.1396   -2.5846 N   0  0  0  0  0  0  0  0  0  0  0  0
   -4.6898    6.3472   -1.2215 C   0  0  0  0  0  0  0  0  0  0  0  0
   -4.8415    5.0877   -0.4803 C   0  0  0  0  0  0  0  0  0  0  0  0
   -4.1782    3.8602   -0.9907 C   0  0  0  0  0  0  0  0  0  0  0  0
   -6.8715    1.1994    3.0135 C   0  0  0  0  0  0  0  0  0  0  0  0
   -7.3350    0.3479    4.0342 C   0  0  0  0  0  0  0  0  0  0  0  0
   -6.5474   -2.6162    5.5548 H   0  0  0  0  0  0  0  0  0  0  0  0
   -8.2090   -2.2319    5.0679 H   0  0  0  0  0  0  0  0  0  0  0  0
   -7.3677   -1.2397    6.2915 H   0  0  0  0  0  0  0  0  0  0  0  0
   -5.2091   -2.2550    3.5936 H   0  0  0  0  0  0  0  0  0  0  0  0
   -4.3858   -0.8232    1.8677 H   0  0  0  0  0  0  0  0  0  0  0  0
   -5.8180    2.6384    1.1480 H   0  0  0  0  0  0  0  0  0  0  0  0
   -2.2934    0.9522   -1.1393 H   0  0  0  0  0  0  0  0  0  0  0  0
   -0.7503    2.5070   -2.2279 H   0  0  0  0  0  0  0  0  0  0  0  0
   -1.6589    4.7195   -2.9331 H   0  0  0  0  0  0  0  0  0  0  0  0
   -5.3557    4.7025   -3.1901 H   0  0  0  0  0  0  0  0  0  0  0  0
   -1.5649    8.0052   -4.6841 H   0  0  0  0  0  0  0  0  0  0  0  0
   -0.9456   10.4340   -4.5212 H   0  0  0  0  0  0  0  0  0  0  0  0
   -3.7442   12.1587   -1.6641 H   0  0  0  0  0  0  0  0  0  0  0  0
   -5.3148   12.8714    0.0025 H   0  0  0  0  0  0  0  0  0  0  0  0
   -7.6695   12.9931    0.6966 H   0  0  0  0  0  0  0  0  0  0  0  0
   -9.3663   11.5338   -0.3427 H   0  0  0  0  0  0  0  0  0  0  0  0
   -9.7079    9.3116   -1.4521 H   0  0  0  0  0  0  0  0  0  0  0  0
   -8.4898    8.6324   -2.5305 H   0  0  0  0  0  0  0  0  0  0  0  0
   -8.0086    9.5767   -4.9418 H   0  0  0  0  0  0  0  0  0  0  0  0
   -8.0880   11.3598   -4.7119 H   0  0  0  0  0  0  0  0  0  0  0  0
   -9.1980   10.5438   -5.8441 H   0  0  0  0  0  0  0  0  0  0  0  0
   -6.3023    9.7429   -2.7769 H   0  0  0  0  0  0  0  0  0  0  0  0
   -4.8459    7.3028   -0.7261 H   0  0  0  0  0  0  0  0  0  0  0  0
   -5.2348    5.1162    0.5340 H   0  0  0  0  0  0  0  0  0  0  0  0
   -7.3625    2.1539    2.8675 H   0  0  0  0  0  0  0  0  0  0  0  0
   -8.1739    0.6753    4.6492 H   0  0  0  0  0  0  0  0  0  0  0  0
  1  2  1  0  0  0  0
  1 40  1  0  0  0  0
  1 41  1  0  0  0  0
  1 42  1  0  0  0  0
  2  3  1  0  0  0  0
  2 39  2  0  0  0  0
  3  4  2  0  0  0  0
  3 43  1  0  0  0  0
  4  5  1  0  0  0  0
  4 44  1  0  0  0  0
  5  6  1  0  0  0  0
  5 38  2  0  0  0  0
  6  7  1  0  0  0  0
  6 45  1  0  0  0  0
  7  8  2  0  0  0  0
  7  9  1  0  0  0  0
  9 10  1  0  0  0  0
  9 37  2  0  0  0  0
 10 11  2  0  0  0  0
 10 46  1  0  0  0  0
 11 12  1  0  0  0  0
 11 47  1  0  0  0  0
 12 13  2  0  0  0  0
 12 48  1  0  0  0  0
 13 14  1  0  0  0  0
 13 37  1  0  0  0  0
 14 15  2  0  0  0  0
 14 49  1  0  0  0  0
 15 16  1  0  0  0  0
 15 35  1  0  0  0  0
 16 17  1  0  0  0  0
 17 18  1  0  0  0  0
 17 34  2  0  0  0  0
 18 19  2  0  0  0  0
 18 50  1  0  0  0  0
 19 20  1  0  0  0  0
 19 51  1  0  0  0  0
 20 21  2  0  0  0  0
 21 22  1  0  0  0  0
 21 34  1  0  0  0  0
 22 23  1  0  0  0  0
 22 52  1  0  0  0  0
 23 24  1  0  0  0  0
 23 33  2  0  0  0  0
 24 25  2  0  0  0  0
 24 53  1  0  0  0  0
 25 26  1  0  0  0  0
 25 54  1  0  0  0  0
 26 27  2  0  0  0  0
 26 55  1  0  0  0  0
 27 28  1  0  0  0  0
 27 33  1  0  0  0  0
 28 29  1  0  0  0  0
 28 56  1  0  0  0  0
 28 57  1  0  0  0  0
 29 30  1  0  0  0  0
 29 31  2  0  0  0  0
 29 32  2  0  0  0  0
 30 58  1  0  0  0  0
 30 59  1  0  0  0  0
 30 60  1  0  0  0  0
 33 61  1  0  0  0  0
 35 36  2  0  0  0  0
 35 62  1  0  0  0  0
 36 37  1  0  0  0  0
 36 63  1  0  0  0  0
 38 39  1  0  0  0  0
 38 64  1  0  0  0  0
 39 65  1  0  0  0  0
M  END
$$$$
