CHEMBL3633769
 OpenBabel04072215373D

 53 55  0  0  0  0  0  0  0  0999 V2000
    2.6545    0.8375   -1.1627 C   0  0  0  0  0  0  0  0  0  0  0  0
    2.4160   -0.0149   -0.0484 O   0  0  0  0  0  0  0  0  0  0  0  0
    3.0698    0.2263    1.1273 C   0  0  0  0  0  0  0  0  0  0  0  0
    4.1959    1.0511    1.2191 C   0  0  0  0  0  0  0  0  0  0  0  0
    4.7966    1.3543    2.4303 C   0  0  0  0  0  0  0  0  0  0  0  0
    5.8313    2.1979    2.4146 N   0  0  0  0  0  0  0  0  0  0  0  0
    6.3856    2.4864    3.5930 C   0  0  0  0  0  0  0  0  0  0  0  0
    6.0201    1.9824    4.7707 N   0  0  0  0  0  0  0  0  0  0  0  0
    4.9879    1.1143    4.7752 C   0  0  0  0  0  0  0  0  0  0  0  0
    4.6247    0.5080    6.0109 N   0  0  0  0  0  0  0  0  0  0  0  0
    5.1334    0.9371    7.2638 C   0  0  0  0  0  0  0  0  0  0  0  0
    5.0751    2.2978    7.6064 C   0  0  0  0  0  0  0  0  0  0  0  0
    5.6390    2.7621    8.7929 C   0  0  0  0  0  0  0  0  0  0  0  0
    6.2491    1.8628    9.6627 C   0  0  0  0  0  0  0  0  0  0  0  0
    6.9857    2.4456   11.1040 Cl  0  0  0  0  0  0  0  0  0  0  0  0
    6.2784    0.4982    9.3708 C   0  0  0  0  0  0  0  0  0  0  0  0
    5.7155    0.0416    8.1796 C   0  0  0  0  0  0  0  0  0  0  0  0
    5.7838   -1.6516    7.8293 Cl  0  0  0  0  0  0  0  0  0  0  0  0
    4.2949    0.7759    3.6010 C   0  0  0  0  0  0  0  0  0  0  0  0
    3.1651   -0.0752    3.5257 C   0  0  0  0  0  0  0  0  0  0  0  0
    2.5753   -0.3760    2.2954 C   0  0  0  0  0  0  0  0  0  0  0  0
    1.5016   -1.2350    2.3705 O   0  0  0  0  0  0  0  0  0  0  0  0
    1.5276   -2.2620    1.3775 C   0  0  0  0  0  0  0  0  0  0  0  0
    0.5626   -3.3941    1.7379 C   0  0  0  0  0  0  0  0  0  0  0  0
    0.5686   -4.4282    0.6081 C   0  0  0  0  0  0  0  0  0  0  0  0
   -0.4204   -5.5698    0.8270 C   0  0  0  0  0  0  0  0  0  0  0  0
   -0.3857   -6.5443   -0.3519 C   0  0  0  0  0  0  0  0  0  0  0  0
   -1.3808   -7.6714   -0.1898 C   0  0  0  0  0  0  0  0  0  0  0  0
   -2.1330   -7.8029    0.7762 O   0  0  0  0  0  0  0  0  0  0  0  0
   -1.3883   -8.5589   -1.2414 N   0  0  0  0  0  0  0  0  0  0  0  0
   -2.2285   -9.6847   -1.0671 O   0  0  0  0  0  0  0  0  0  0  0  0
    3.3709    0.3613   -1.8391 H   0  0  0  0  0  0  0  0  0  0  0  0
    2.9880    1.8447   -0.8973 H   0  0  0  0  0  0  0  0  0  0  0  0
    1.7063    0.9539   -1.6958 H   0  0  0  0  0  0  0  0  0  0  0  0
    4.6448    1.4902    0.3335 H   0  0  0  0  0  0  0  0  0  0  0  0
    7.2108    3.1898    3.5929 H   0  0  0  0  0  0  0  0  0  0  0  0
    4.7166   -0.5037    5.9128 H   0  0  0  0  0  0  0  0  0  0  0  0
    4.6133    3.0082    6.9223 H   0  0  0  0  0  0  0  0  0  0  0  0
    5.6099    3.8243    9.0189 H   0  0  0  0  0  0  0  0  0  0  0  0
    6.7491   -0.1944   10.0592 H   0  0  0  0  0  0  0  0  0  0  0  0
    2.7368   -0.5025    4.4299 H   0  0  0  0  0  0  0  0  0  0  0  0
    2.5408   -2.6727    1.2820 H   0  0  0  0  0  0  0  0  0  0  0  0
    1.1933   -1.8565    0.4193 H   0  0  0  0  0  0  0  0  0  0  0  0
   -0.4448   -2.9879    1.8869 H   0  0  0  0  0  0  0  0  0  0  0  0
    0.8543   -3.8518    2.6900 H   0  0  0  0  0  0  0  0  0  0  0  0
    1.5815   -4.8390    0.4977 H   0  0  0  0  0  0  0  0  0  0  0  0
    0.3247   -3.9260   -0.3373 H   0  0  0  0  0  0  0  0  0  0  0  0
   -1.4336   -5.1670    0.9414 H   0  0  0  0  0  0  0  0  0  0  0  0
   -0.1799   -6.1004    1.7550 H   0  0  0  0  0  0  0  0  0  0  0  0
    0.6169   -6.9816   -0.4472 H   0  0  0  0  0  0  0  0  0  0  0  0
   -0.6181   -6.0152   -1.2850 H   0  0  0  0  0  0  0  0  0  0  0  0
   -0.5949   -8.6822   -1.8607 H   0  0  0  0  0  0  0  0  0  0  0  0
   -2.6532   -9.5002   -0.1998 H   0  0  0  0  0  0  0  0  0  0  0  0
  1  2  1  0  0  0  0
  1 32  1  0  0  0  0
  1 33  1  0  0  0  0
  1 34  1  0  0  0  0
  2  3  1  0  0  0  0
  3  4  1  0  0  0  0
  3 21  2  0  0  0  0
  4  5  2  0  0  0  0
  4 35  1  0  0  0  0
  5  6  1  0  0  0  0
  5 19  1  0  0  0  0
  6  7  2  0  0  0  0
  7  8  1  0  0  0  0
  7 36  1  0  0  0  0
  8  9  2  0  0  0  0
  9 10  1  0  0  0  0
  9 19  1  0  0  0  0
 10 11  1  0  0  0  0
 10 37  1  0  0  0  0
 11 12  1  0  0  0  0
 11 17  2  0  0  0  0
 12 13  2  0  0  0  0
 12 38  1  0  0  0  0
 13 14  1  0  0  0  0
 13 39  1  0  0  0  0
 14 15  1  0  0  0  0
 14 16  2  0  0  0  0
 16 17  1  0  0  0  0
 16 40  1  0  0  0  0
 17 18  1  0  0  0  0
 19 20  2  0  0  0  0
 20 21  1  0  0  0  0
 20 41  1  0  0  0  0
 21 22  1  0  0  0  0
 22 23  1  0  0  0  0
 23 24  1  0  0  0  0
 23 42  1  0  0  0  0
 23 43  1  0  0  0  0
 24 25  1  0  0  0  0
 24 44  1  0  0  0  0
 24 45  1  0  0  0  0
 25 26  1  0  0  0  0
 25 46  1  0  0  0  0
 25 47  1  0  0  0  0
 26 27  1  0  0  0  0
 26 48  1  0  0  0  0
 26 49  1  0  0  0  0
 27 28  1  0  0  0  0
 27 50  1  0  0  0  0
 27 51  1  0  0  0  0
 28 29  2  0  0  0  0
 28 30  1  0  0  0  0
 30 31  1  0  0  0  0
 30 52  1  0  0  0  0
 31 53  1  0  0  0  0
M  END
$$$$
