CHEMBL364082
 OpenBabel04072215373D

 53 56  0  0  0  0  0  0  0  0999 V2000
    6.7356    0.6080   -8.9517 C   0  0  0  0  0  0  0  0  0  0  0  0
    6.6816    1.1785   -7.5449 C   0  0  0  0  0  0  0  0  0  0  0  0
    5.5499    0.2511   -6.5149 S   0  0  0  0  0  0  0  0  0  0  0  0
    4.2296    0.3517   -7.1076 O   0  0  0  0  0  0  0  0  0  0  0  0
    6.1417   -1.0426   -6.2253 O   0  0  0  0  0  0  0  0  0  0  0  0
    5.4976    1.1466   -4.9817 C   0  0  0  0  0  0  0  0  0  0  0  0
    4.3136    1.7154   -4.5236 C   0  0  0  0  0  0  0  0  0  0  0  0
    4.3057    2.3986   -3.3029 C   0  0  0  0  0  0  0  0  0  0  0  0
    5.4849    2.5348   -2.5555 C   0  0  0  0  0  0  0  0  0  0  0  0
    5.5739    3.2203   -1.3650 O   0  0  0  0  0  0  0  0  0  0  0  0
    4.3531    3.4310   -0.6622 C   0  0  0  0  0  0  0  0  0  0  0  0
    6.6971    1.9886   -3.0354 C   0  0  0  0  0  0  0  0  0  0  0  0
    7.8914    2.1826   -2.2990 N   0  0  0  0  0  0  0  0  0  0  0  0
    9.1404    1.9694   -2.7503 C   0  0  0  0  0  0  0  0  0  0  0  0
    9.5494    1.3012   -3.8085 N   0  0  0  0  0  0  0  0  0  0  0  0
   10.8977    1.4786   -3.8296 C   0  0  0  0  0  0  0  0  0  0  0  0
   11.2848    2.2716   -2.7770 C   0  0  0  0  0  0  0  0  0  0  0  0
   12.5601    2.8207   -2.3489 C   0  0  0  0  0  0  0  0  0  0  0  0
   13.7124    2.5470   -3.0990 C   0  0  0  0  0  0  0  0  0  0  0  0
   14.9449    3.0708   -2.7258 C   0  0  0  0  0  0  0  0  0  0  0  0
   15.0345    3.8927   -1.6056 C   0  0  0  0  0  0  0  0  0  0  0  0
   13.8971    4.2345   -0.8487 C   0  0  0  0  0  0  0  0  0  0  0  0
   13.9784    5.2225    0.2513 C   0  0  0  0  0  0  0  0  0  0  0  0
   14.8533    6.3225    0.1629 C   0  0  0  0  0  0  0  0  0  0  0  0
   14.8952    7.3082    1.1513 C   0  0  0  0  0  0  0  0  0  0  0  0
   14.0527    7.2214    2.2529 C   0  0  0  0  0  0  0  0  0  0  0  0
   13.1863    6.1391    2.3751 C   0  0  0  0  0  0  0  0  0  0  0  0
   13.1569    5.1457    1.3903 C   0  0  0  0  0  0  0  0  0  0  0  0
   12.6679    3.6604   -1.2305 C   0  0  0  0  0  0  0  0  0  0  0  0
   10.1545    2.5757   -2.0563 O   0  0  0  0  0  0  0  0  0  0  0  0
    6.6686    1.2556   -4.2336 C   0  0  0  0  0  0  0  0  0  0  0  0
    7.4455    1.1680   -9.5685 H   0  0  0  0  0  0  0  0  0  0  0  0
    5.7542    0.6595   -9.4345 H   0  0  0  0  0  0  0  0  0  0  0  0
    7.0461   -0.4419   -8.9411 H   0  0  0  0  0  0  0  0  0  0  0  0
    6.3364    2.2160   -7.5737 H   0  0  0  0  0  0  0  0  0  0  0  0
    7.6743    1.1408   -7.0872 H   0  0  0  0  0  0  0  0  0  0  0  0
    3.3937    1.6238   -5.0970 H   0  0  0  0  0  0  0  0  0  0  0  0
    3.3654    2.8280   -2.9710 H   0  0  0  0  0  0  0  0  0  0  0  0
    4.5958    3.8940    0.2991 H   0  0  0  0  0  0  0  0  0  0  0  0
    3.8461    2.4819   -0.4582 H   0  0  0  0  0  0  0  0  0  0  0  0
    3.6971    4.1225   -1.2009 H   0  0  0  0  0  0  0  0  0  0  0  0
    7.7646    2.8009   -1.5035 H   0  0  0  0  0  0  0  0  0  0  0  0
   11.5051    1.0519   -4.6133 H   0  0  0  0  0  0  0  0  0  0  0  0
   13.6669    1.9280   -3.9915 H   0  0  0  0  0  0  0  0  0  0  0  0
   15.8303    2.8526   -3.3163 H   0  0  0  0  0  0  0  0  0  0  0  0
   16.0134    4.2839   -1.3357 H   0  0  0  0  0  0  0  0  0  0  0  0
   15.5001    6.4443   -0.7032 H   0  0  0  0  0  0  0  0  0  0  0  0
   15.5755    8.1489    1.0457 H   0  0  0  0  0  0  0  0  0  0  0  0
   14.0687    7.9986    3.0119 H   0  0  0  0  0  0  0  0  0  0  0  0
   12.5246    6.0692    3.2346 H   0  0  0  0  0  0  0  0  0  0  0  0
   12.4726    4.3104    1.5238 H   0  0  0  0  0  0  0  0  0  0  0  0
   11.7667    3.9045   -0.6714 H   0  0  0  0  0  0  0  0  0  0  0  0
    7.5532    0.7487   -4.6020 H   0  0  0  0  0  0  0  0  0  0  0  0
  1  2  1  0  0  0  0
  1 32  1  0  0  0  0
  1 33  1  0  0  0  0
  1 34  1  0  0  0  0
  2  3  1  0  0  0  0
  2 35  1  0  0  0  0
  2 36  1  0  0  0  0
  3  4  2  0  0  0  0
  3  5  2  0  0  0  0
  3  6  1  0  0  0  0
  6  7  1  0  0  0  0
  6 31  2  0  0  0  0
  7  8  2  0  0  0  0
  7 37  1  0  0  0  0
  8  9  1  0  0  0  0
  8 38  1  0  0  0  0
  9 10  1  0  0  0  0
  9 12  2  0  0  0  0
 10 11  1  0  0  0  0
 11 39  1  0  0  0  0
 11 40  1  0  0  0  0
 11 41  1  0  0  0  0
 12 13  1  0  0  0  0
 12 31  1  0  0  0  0
 13 14  1  0  0  0  0
 13 42  1  0  0  0  0
 14 15  2  0  0  0  0
 14 30  1  0  0  0  0
 15 16  1  0  0  0  0
 16 17  2  0  0  0  0
 16 43  1  0  0  0  0
 17 18  1  0  0  0  0
 17 30  1  0  0  0  0
 18 19  1  0  0  0  0
 18 29  2  0  0  0  0
 19 20  2  0  0  0  0
 19 44  1  0  0  0  0
 20 21  1  0  0  0  0
 20 45  1  0  0  0  0
 21 22  2  0  0  0  0
 21 46  1  0  0  0  0
 22 23  1  0  0  0  0
 22 29  1  0  0  0  0
 23 24  1  0  0  0  0
 23 28  2  0  0  0  0
 24 25  2  0  0  0  0
 24 47  1  0  0  0  0
 25 26  1  0  0  0  0
 25 48  1  0  0  0  0
 26 27  2  0  0  0  0
 26 49  1  0  0  0  0
 27 28  1  0  0  0  0
 27 50  1  0  0  0  0
 28 51  1  0  0  0  0
 29 52  1  0  0  0  0
 31 53  1  0  0  0  0
M  END
$$$$
