CHEMBL4225238
 OpenBabel04072215383D

 45 47  0  0  0  0  0  0  0  0999 V2000
    1.6209    0.0332   -2.1374 C   0  0  0  0  0  0  0  0  0  0  0  0
    2.8866   -0.3428   -1.5572 N   0  0  0  0  0  0  0  0  0  0  0  0
    4.0701    0.0132   -2.1715 C   0  0  0  0  0  0  0  0  0  0  0  0
    4.1280    0.6179   -3.2306 O   0  0  0  0  0  0  0  0  0  0  0  0
    5.3146   -0.3374   -1.4528 C   0  0  0  0  0  0  0  0  0  0  0  0
    5.4319   -1.4470   -0.6144 C   0  0  0  0  0  0  0  0  0  0  0  0
    6.6491   -1.6936    0.0242 C   0  0  0  0  0  0  0  0  0  0  0  0
    7.7188   -0.8279   -0.1885 C   0  0  0  0  0  0  0  0  0  0  0  0
    9.2750   -1.1467    0.6293 S   0  0  0  0  0  0  0  0  0  0  0  0
    9.9243    0.5006    0.8243 C   0  0  0  0  0  0  0  0  0  0  0  0
    9.6224    1.2481    1.9651 C   0  0  0  0  0  0  0  0  0  0  0  0
   10.1163    2.5507    2.1218 C   0  0  0  0  0  0  0  0  0  0  0  0
   10.9022    3.1252    1.1326 C   0  0  0  0  0  0  0  0  0  0  0  0
   11.4615    4.4164    1.1783 N   0  0  0  0  0  0  0  0  0  0  0  0
   11.7098    5.3187    2.1923 C   0  0  0  0  0  0  0  0  0  0  0  0
   11.0526    5.4166    3.7205 S   0  0  0  0  0  0  0  0  0  0  0  0
   12.6251    6.3001    1.8406 N   0  0  0  0  0  0  0  0  0  0  0  0
   13.6418    6.2132    0.8673 C   0  0  0  0  0  0  0  0  0  0  0  0
   14.0702    7.3780    0.2345 C   0  0  0  0  0  0  0  0  0  0  0  0
   15.0047    7.2986   -0.8053 C   0  0  0  0  0  0  0  0  0  0  0  0
   15.5390    6.0630   -1.1725 C   0  0  0  0  0  0  0  0  0  0  0  0
   16.6620    5.9641   -2.4713 Cl  0  0  0  0  0  0  0  0  0  0  0  0
   15.1639    4.9028   -0.4993 C   0  0  0  0  0  0  0  0  0  0  0  0
   14.2269    4.9846    0.5275 C   0  0  0  0  0  0  0  0  0  0  0  0
   11.2130    2.3686   -0.0088 C   0  0  0  0  0  0  0  0  0  0  0  0
   10.7476    1.0585   -0.1518 C   0  0  0  0  0  0  0  0  0  0  0  0
    7.6290    0.2363   -1.0220 N   0  0  0  0  0  0  0  0  0  0  0  0
    6.4394    0.4549   -1.6352 C   0  0  0  0  0  0  0  0  0  0  0  0
    0.8211   -0.2549   -1.4514 H   0  0  0  0  0  0  0  0  0  0  0  0
    1.4975   -0.4829   -3.0932 H   0  0  0  0  0  0  0  0  0  0  0  0
    1.5996    1.1140   -2.3028 H   0  0  0  0  0  0  0  0  0  0  0  0
    2.8926   -0.6730   -0.6019 H   0  0  0  0  0  0  0  0  0  0  0  0
    4.6074   -2.1389   -0.4741 H   0  0  0  0  0  0  0  0  0  0  0  0
    6.7563   -2.5590    0.6783 H   0  0  0  0  0  0  0  0  0  0  0  0
    8.9903    0.8330    2.7451 H   0  0  0  0  0  0  0  0  0  0  0  0
    9.8263    3.0879    3.0150 H   0  0  0  0  0  0  0  0  0  0  0  0
   11.8155    4.7334    0.2841 H   0  0  0  0  0  0  0  0  0  0  0  0
   12.6230    7.1238    2.4341 H   0  0  0  0  0  0  0  0  0  0  0  0
   13.6385    8.3427    0.4892 H   0  0  0  0  0  0  0  0  0  0  0  0
   15.2969    8.2011   -1.3358 H   0  0  0  0  0  0  0  0  0  0  0  0
   15.5948    3.9428   -0.7615 H   0  0  0  0  0  0  0  0  0  0  0  0
   13.9742    4.0744    1.0679 H   0  0  0  0  0  0  0  0  0  0  0  0
   11.8512    2.7729   -0.7906 H   0  0  0  0  0  0  0  0  0  0  0  0
   11.0224    0.4865   -1.0352 H   0  0  0  0  0  0  0  0  0  0  0  0
    6.4164    1.3212   -2.2916 H   0  0  0  0  0  0  0  0  0  0  0  0
  1  2  1  0  0  0  0
  1 29  1  0  0  0  0
  1 30  1  0  0  0  0
  1 31  1  0  0  0  0
  2  3  1  0  0  0  0
  2 32  1  0  0  0  0
  3  4  2  0  0  0  0
  3  5  1  0  0  0  0
  5  6  1  0  0  0  0
  5 28  2  0  0  0  0
  6  7  2  0  0  0  0
  6 33  1  0  0  0  0
  7  8  1  0  0  0  0
  7 34  1  0  0  0  0
  8  9  1  0  0  0  0
  8 27  2  0  0  0  0
  9 10  1  0  0  0  0
 10 11  1  0  0  0  0
 10 26  2  0  0  0  0
 11 12  2  0  0  0  0
 11 35  1  0  0  0  0
 12 13  1  0  0  0  0
 12 36  1  0  0  0  0
 13 14  1  0  0  0  0
 13 25  2  0  0  0  0
 14 15  1  0  0  0  0
 14 37  1  0  0  0  0
 15 16  2  0  0  0  0
 15 17  1  0  0  0  0
 17 18  1  0  0  0  0
 17 38  1  0  0  0  0
 18 19  1  0  0  0  0
 18 24  2  0  0  0  0
 19 20  2  0  0  0  0
 19 39  1  0  0  0  0
 20 21  1  0  0  0  0
 20 40  1  0  0  0  0
 21 22  1  0  0  0  0
 21 23  2  0  0  0  0
 23 24  1  0  0  0  0
 23 41  1  0  0  0  0
 24 42  1  0  0  0  0
 25 26  1  0  0  0  0
 25 43  1  0  0  0  0
 26 44  1  0  0  0  0
 27 28  1  0  0  0  0
 28 45  1  0  0  0  0
M  END
$$$$
