CHEMBL4165904
 OpenBabel04072215383D

 45 49  0  0  0  0  0  0  0  0999 V2000
    4.7800    2.8614    4.1398 C   0  0  0  0  0  0  0  0  0  0  0  0
    5.2399    2.1017    3.0044 N   0  0  0  0  0  0  0  0  0  0  0  0
    5.3140    2.6747    1.7795 N   0  0  0  0  0  0  0  0  0  0  0  0
    5.7954    1.6909    1.0096 C   0  0  0  0  0  0  0  0  0  0  0  0
    6.0176    0.5006    1.7256 C   0  0  0  0  0  0  0  0  0  0  0  0
    6.5002   -0.7814    1.4943 C   0  0  0  0  0  0  0  0  0  0  0  0
    6.9508   -1.1489    0.2322 O   0  0  0  0  0  0  0  0  0  0  0  0
    8.0276   -2.0102    0.1705 C   0  0  0  0  0  0  0  0  0  0  0  0
    8.0879   -2.8648   -0.9356 C   0  0  0  0  0  0  0  0  0  0  0  0
    9.1233   -3.8015   -1.0824 C   0  0  0  0  0  0  0  0  0  0  0  0
   10.0859   -3.8440   -0.0658 C   0  0  0  0  0  0  0  0  0  0  0  0
   10.0690   -2.9665    1.0083 C   0  0  0  0  0  0  0  0  0  0  0  0
    9.0543   -2.0135    1.1211 C   0  0  0  0  0  0  0  0  0  0  0  0
   11.1156   -3.1965    1.8475 N   0  0  0  0  0  0  0  0  0  0  0  0
   11.7820   -4.2150    1.3510 C   0  0  0  0  0  0  0  0  0  0  0  0
   12.9111   -4.7757    1.8555 N   0  0  0  0  0  0  0  0  0  0  0  0
   13.5410   -4.3569    3.0524 C   0  0  0  0  0  0  0  0  0  0  0  0
   12.8296   -3.8214    4.1375 C   0  0  0  0  0  0  0  0  0  0  0  0
   13.4859   -3.3027    5.2581 C   0  0  0  0  0  0  0  0  0  0  0  0
   14.8754   -3.3127    5.3035 C   0  0  0  0  0  0  0  0  0  0  0  0
   15.7702   -2.5562    6.7867 Br  0  0  0  0  0  0  0  0  0  0  0  0
   15.6064   -3.8572    4.2540 C   0  0  0  0  0  0  0  0  0  0  0  0
   14.9407   -4.3780    3.1352 C   0  0  0  0  0  0  0  0  0  0  0  0
   11.1836   -4.6451    0.1813 N   0  0  0  0  0  0  0  0  0  0  0  0
   11.5538   -5.7701   -0.6420 C   0  0  0  0  0  0  0  0  0  0  0  0
    6.5174   -1.6766    2.5144 N   0  0  0  0  0  0  0  0  0  0  0  0
    6.1399   -1.2519    3.7348 C   0  0  0  0  0  0  0  0  0  0  0  0
    5.6930   -0.0324    4.0836 N   0  0  0  0  0  0  0  0  0  0  0  0
    5.6471    0.7952    3.0244 C   0  0  0  0  0  0  0  0  0  0  0  0
    4.5225    3.8739    3.8222 H   0  0  0  0  0  0  0  0  0  0  0  0
    5.5835    2.8962    4.8799 H   0  0  0  0  0  0  0  0  0  0  0  0
    3.8979    2.3644    4.5525 H   0  0  0  0  0  0  0  0  0  0  0  0
    5.9666    1.8828   -0.0423 H   0  0  0  0  0  0  0  0  0  0  0  0
    7.3070   -2.8162   -1.6919 H   0  0  0  0  0  0  0  0  0  0  0  0
    9.1535   -4.4710   -1.9350 H   0  0  0  0  0  0  0  0  0  0  0  0
    9.0707   -1.3373    1.9667 H   0  0  0  0  0  0  0  0  0  0  0  0
   13.4945   -5.3665    1.2791 H   0  0  0  0  0  0  0  0  0  0  0  0
   11.7423   -3.7924    4.1189 H   0  0  0  0  0  0  0  0  0  0  0  0
   12.9003   -2.8801    6.0695 H   0  0  0  0  0  0  0  0  0  0  0  0
   16.6926   -3.8613    4.2798 H   0  0  0  0  0  0  0  0  0  0  0  0
   15.5341   -4.7623    2.3115 H   0  0  0  0  0  0  0  0  0  0  0  0
   12.2270   -6.4380   -0.1017 H   0  0  0  0  0  0  0  0  0  0  0  0
   12.0386   -5.3883   -1.5437 H   0  0  0  0  0  0  0  0  0  0  0  0
   10.6496   -6.3254   -0.9064 H   0  0  0  0  0  0  0  0  0  0  0  0
    6.2157   -1.9827    4.5356 H   0  0  0  0  0  0  0  0  0  0  0  0
  1  2  1  0  0  0  0
  1 30  1  0  0  0  0
  1 31  1  0  0  0  0
  1 32  1  0  0  0  0
  2  3  1  0  0  0  0
  2 29  1  0  0  0  0
  3  4  2  0  0  0  0
  4  5  1  0  0  0  0
  4 33  1  0  0  0  0
  5  6  1  0  0  0  0
  5 29  2  0  0  0  0
  6  7  1  0  0  0  0
  6 26  2  0  0  0  0
  7  8  1  0  0  0  0
  8  9  1  0  0  0  0
  8 13  2  0  0  0  0
  9 10  2  0  0  0  0
  9 34  1  0  0  0  0
 10 11  1  0  0  0  0
 10 35  1  0  0  0  0
 11 12  2  0  0  0  0
 11 24  1  0  0  0  0
 12 13  1  0  0  0  0
 12 14  1  0  0  0  0
 13 36  1  0  0  0  0
 14 15  2  0  0  0  0
 15 16  1  0  0  0  0
 15 24  1  0  0  0  0
 16 17  1  0  0  0  0
 16 37  1  0  0  0  0
 17 18  1  0  0  0  0
 17 23  2  0  0  0  0
 18 19  2  0  0  0  0
 18 38  1  0  0  0  0
 19 20  1  0  0  0  0
 19 39  1  0  0  0  0
 20 21  1  0  0  0  0
 20 22  2  0  0  0  0
 22 23  1  0  0  0  0
 22 40  1  0  0  0  0
 23 41  1  0  0  0  0
 24 25  1  0  0  0  0
 25 42  1  0  0  0  0
 25 43  1  0  0  0  0
 25 44  1  0  0  0  0
 26 27  1  0  0  0  0
 27 28  2  0  0  0  0
 27 45  1  0  0  0  0
 28 29  1  0  0  0  0
M  END
$$$$
