CHEMBL3656059
 OpenBabel04072215373D

 75 79  0  0  0  0  0  0  0  0999 V2000
    2.8762    7.1859    2.5712 C   0  0  0  0  0  0  0  0  0  0  0  0
    1.7324    6.2313    2.3695 C   0  0  0  0  0  0  0  0  0  0  0  0
    2.0064    4.9253    1.9561 C   0  0  0  0  0  0  0  0  0  0  0  0
    0.9677    4.0237    1.7778 C   0  0  0  0  0  0  0  0  0  0  0  0
   -0.3504    4.4170    2.0024 C   0  0  0  0  0  0  0  0  0  0  0  0
   -1.2624    3.4402    1.9300 F   0  0  0  0  0  0  0  0  0  0  0  0
   -0.6794    5.7329    2.3804 C   0  0  0  0  0  0  0  0  0  0  0  0
   -2.0146    6.2084    2.5807 N   0  0  0  0  0  0  0  0  0  0  0  0
   -3.1573    5.6131    2.0580 C   0  0  0  0  0  0  0  0  0  0  0  0
   -3.1619    4.6280    1.3400 O   0  0  0  0  0  0  0  0  0  0  0  0
   -4.3358    6.2948    2.3729 N   0  0  0  0  0  0  0  0  0  0  0  0
   -5.5617    5.7320    1.9100 C   0  0  0  0  0  0  0  0  0  0  0  0
   -5.8902    4.4146    2.2457 C   0  0  0  0  0  0  0  0  0  0  0  0
   -7.0181    3.7994    1.7010 C   0  0  0  0  0  0  0  0  0  0  0  0
   -7.8772    4.5137    0.8649 C   0  0  0  0  0  0  0  0  0  0  0  0
   -9.0239    3.9835    0.3059 O   0  0  0  0  0  0  0  0  0  0  0  0
   -9.7408    3.0352    1.0077 C   0  0  0  0  0  0  0  0  0  0  0  0
   -9.8449    3.0071    2.3928 C   0  0  0  0  0  0  0  0  0  0  0  0
  -10.5394    1.9647    2.9813 C   0  0  0  0  0  0  0  0  0  0  0  0
  -11.1692    0.9933    2.2878 N   0  0  0  0  0  0  0  0  0  0  0  0
  -11.1042    1.0759    0.9380 C   0  0  0  0  0  0  0  0  0  0  0  0
  -11.7959    0.0038    0.2302 C   0  0  0  0  0  0  0  0  0  0  0  0
  -11.9400   -0.2287   -1.1265 C   0  0  0  0  0  0  0  0  0  0  0  0
  -12.7329   -1.3960   -1.3183 C   0  0  0  0  0  0  0  0  0  0  0  0
  -13.1918   -2.0134   -2.5545 C   0  0  0  0  0  0  0  0  0  0  0  0
  -13.8735   -3.0357   -2.5763 O   0  0  0  0  0  0  0  0  0  0  0  0
  -12.8126   -1.3455   -3.7060 N   0  0  0  0  0  0  0  0  0  0  0  0
  -13.1539   -1.8501   -5.0129 C   0  0  0  0  0  0  0  0  0  0  0  0
  -13.2564   -0.7115   -6.0200 C   0  0  0  0  0  0  0  0  0  0  0  0
  -13.6842   -1.2523   -7.3857 C   0  0  0  0  0  0  0  0  0  0  0  0
  -13.8346   -0.2045   -8.4096 N   0  0  0  0  0  0  0  0  0  0  0  0
  -14.8638    0.8068   -8.0736 C   0  0  0  0  0  0  0  0  0  0  0  0
  -16.3020    0.2641   -8.1127 C   0  0  0  0  0  0  0  0  0  0  0  0
  -16.6095   -0.3167   -9.3872 O   0  0  0  0  0  0  0  0  0  0  0  0
  -15.6664   -1.3403   -9.7305 C   0  0  0  0  0  0  0  0  0  0  0  0
  -14.2235   -0.8013   -9.7122 C   0  0  0  0  0  0  0  0  0  0  0  0
  -13.0275   -1.8596   -0.0459 C   0  0  0  0  0  0  0  0  0  0  0  0
  -12.4472   -1.0233    0.8729 N   0  0  0  0  0  0  0  0  0  0  0  0
  -10.4206    2.0796    0.2605 C   0  0  0  0  0  0  0  0  0  0  0  0
   -7.5501    5.8289    0.5185 C   0  0  0  0  0  0  0  0  0  0  0  0
   -6.4055    6.4472    1.0561 C   0  0  0  0  0  0  0  0  0  0  0  0
    0.3900    6.6271    2.5846 C   0  0  0  0  0  0  0  0  0  0  0  0
    3.8386    6.6970    2.3723 H   0  0  0  0  0  0  0  0  0  0  0  0
    2.9003    7.5422    3.6050 H   0  0  0  0  0  0  0  0  0  0  0  0
    2.7944    8.0352    1.8868 H   0  0  0  0  0  0  0  0  0  0  0  0
    3.0296    4.5940    1.7857 H   0  0  0  0  0  0  0  0  0  0  0  0
    1.1675    2.9980    1.4832 H   0  0  0  0  0  0  0  0  0  0  0  0
   -2.1214    7.1002    3.0375 H   0  0  0  0  0  0  0  0  0  0  0  0
   -4.2609    7.2990    2.3093 H   0  0  0  0  0  0  0  0  0  0  0  0
   -5.2527    3.8436    2.9168 H   0  0  0  0  0  0  0  0  0  0  0  0
   -7.2043    2.7572    1.9456 H   0  0  0  0  0  0  0  0  0  0  0  0
   -9.3669    3.7522    3.0157 H   0  0  0  0  0  0  0  0  0  0  0  0
  -10.5881    1.8782    4.0624 H   0  0  0  0  0  0  0  0  0  0  0  0
  -11.5219    0.3979   -1.8992 H   0  0  0  0  0  0  0  0  0  0  0  0
  -12.1347   -0.6038   -3.6391 H   0  0  0  0  0  0  0  0  0  0  0  0
  -14.1100   -2.3808   -4.9516 H   0  0  0  0  0  0  0  0  0  0  0  0
  -12.3824   -2.5674   -5.3071 H   0  0  0  0  0  0  0  0  0  0  0  0
  -12.2994   -0.1822   -6.1033 H   0  0  0  0  0  0  0  0  0  0  0  0
  -13.9868    0.0072   -5.6340 H   0  0  0  0  0  0  0  0  0  0  0  0
  -14.6023   -1.8365   -7.2600 H   0  0  0  0  0  0  0  0  0  0  0  0
  -12.9120   -1.9574   -7.7225 H   0  0  0  0  0  0  0  0  0  0  0  0
  -14.7759    1.6167   -8.8094 H   0  0  0  0  0  0  0  0  0  0  0  0
  -14.6629    1.2816   -7.1089 H   0  0  0  0  0  0  0  0  0  0  0  0
  -17.0048    1.0871   -7.9493 H   0  0  0  0  0  0  0  0  0  0  0  0
  -16.4786   -0.4766   -7.3243 H   0  0  0  0  0  0  0  0  0  0  0  0
  -15.9155   -1.6949  -10.7354 H   0  0  0  0  0  0  0  0  0  0  0  0
  -15.7944   -2.1902   -9.0507 H   0  0  0  0  0  0  0  0  0  0  0  0
  -14.1377   -0.0147  -10.4738 H   0  0  0  0  0  0  0  0  0  0  0  0
  -13.5163   -1.5865  -10.0034 H   0  0  0  0  0  0  0  0  0  0  0  0
  -13.6072   -2.7164    0.2711 H   0  0  0  0  0  0  0  0  0  0  0  0
  -12.4852   -1.1216    1.8799 H   0  0  0  0  0  0  0  0  0  0  0  0
  -10.3956    2.1161   -0.8220 H   0  0  0  0  0  0  0  0  0  0  0  0
   -8.1742    6.3694   -0.1900 H   0  0  0  0  0  0  0  0  0  0  0  0
   -6.1534    7.4525    0.7331 H   0  0  0  0  0  0  0  0  0  0  0  0
    0.1942    7.6529    2.8872 H   0  0  0  0  0  0  0  0  0  0  0  0
  1  2  1  0  0  0  0
  1 43  1  0  0  0  0
  1 44  1  0  0  0  0
  1 45  1  0  0  0  0
  2  3  1  0  0  0  0
  2 42  2  0  0  0  0
  3  4  2  0  0  0  0
  3 46  1  0  0  0  0
  4  5  1  0  0  0  0
  4 47  1  0  0  0  0
  5  6  1  0  0  0  0
  5  7  2  0  0  0  0
  7  8  1  0  0  0  0
  7 42  1  0  0  0  0
  8  9  1  0  0  0  0
  8 48  1  0  0  0  0
  9 10  2  0  0  0  0
  9 11  1  0  0  0  0
 11 12  1  0  0  0  0
 11 49  1  0  0  0  0
 12 13  1  0  0  0  0
 12 41  2  0  0  0  0
 13 14  2  0  0  0  0
 13 50  1  0  0  0  0
 14 15  1  0  0  0  0
 14 51  1  0  0  0  0
 15 16  1  0  0  0  0
 15 40  2  0  0  0  0
 16 17  1  0  0  0  0
 17 18  1  0  0  0  0
 17 39  2  0  0  0  0
 18 19  2  0  0  0  0
 18 52  1  0  0  0  0
 19 20  1  0  0  0  0
 19 53  1  0  0  0  0
 20 21  2  0  0  0  0
 21 22  1  0  0  0  0
 21 39  1  0  0  0  0
 22 23  2  0  0  0  0
 22 38  1  0  0  0  0
 23 24  1  0  0  0  0
 23 54  1  0  0  0  0
 24 25  1  0  0  0  0
 24 37  2  0  0  0  0
 25 26  2  0  0  0  0
 25 27  1  0  0  0  0
 27 28  1  0  0  0  0
 27 55  1  0  0  0  0
 28 29  1  0  0  0  0
 28 56  1  0  0  0  0
 28 57  1  0  0  0  0
 29 30  1  0  0  0  0
 29 58  1  0  0  0  0
 29 59  1  0  0  0  0
 30 31  1  0  0  0  0
 30 60  1  0  0  0  0
 30 61  1  0  0  0  0
 31 32  1  0  0  0  0
 31 36  1  0  0  0  0
 32 33  1  0  0  0  0
 32 62  1  0  0  0  0
 32 63  1  0  0  0  0
 33 34  1  0  0  0  0
 33 64  1  0  0  0  0
 33 65  1  0  0  0  0
 34 35  1  0  0  0  0
 35 36  1  0  0  0  0
 35 66  1  0  0  0  0
 35 67  1  0  0  0  0
 36 68  1  0  0  0  0
 36 69  1  0  0  0  0
 37 38  1  0  0  0  0
 37 70  1  0  0  0  0
 38 71  1  0  0  0  0
 39 72  1  0  0  0  0
 40 41  1  0  0  0  0
 40 73  1  0  0  0  0
 41 74  1  0  0  0  0
 42 75  1  0  0  0  0
M  END
$$$$
