CHEMBL2086732
 OpenBabel04072215363D

 43 47  0  0  0  0  0  0  0  0999 V2000
    2.0180    1.4426   -2.1850 N   0  0  0  0  0  0  0  0  0  0  0  0
    0.8004    1.0439   -1.6235 C   0  0  0  0  0  0  0  0  0  0  0  0
    0.1218   -0.0767   -2.1097 C   0  0  0  0  0  0  0  0  0  0  0  0
   -1.1055   -0.4705   -1.5583 C   0  0  0  0  0  0  0  0  0  0  0  0
   -1.6320    0.2201   -0.4644 C   0  0  0  0  0  0  0  0  0  0  0  0
   -3.0378    0.0280    0.0161 C   0  0  0  0  0  0  0  0  0  0  0  0
   -3.3439   -1.0138    0.8271 C   0  0  0  0  0  0  0  0  0  0  0  0
   -2.6421   -0.9147    2.1848 C   0  0  0  0  0  0  0  0  0  0  0  0
   -2.5057    0.0634    2.8919 O   0  0  0  0  0  0  0  0  0  0  0  0
   -2.1028   -2.1725    2.4326 N   0  0  0  0  0  0  0  0  0  0  0  0
   -2.3224   -3.0324    1.3692 C   0  0  0  0  0  0  0  0  0  0  0  0
   -1.8273   -4.3084    1.2061 C   0  0  0  0  0  0  0  0  0  0  0  0
   -2.2087   -5.0015    0.0544 C   0  0  0  0  0  0  0  0  0  0  0  0
   -3.1089   -4.4304   -0.8648 C   0  0  0  0  0  0  0  0  0  0  0  0
   -3.5752   -3.1232   -0.6889 C   0  0  0  0  0  0  0  0  0  0  0  0
   -3.1188   -2.4142    0.4100 C   0  0  0  0  0  0  0  0  0  0  0  0
   -3.9505    1.1312    0.0640 C   0  0  0  0  0  0  0  0  0  0  0  0
   -5.0148    1.3656    0.8083 N   0  0  0  0  0  0  0  0  0  0  0  0
   -5.4118    2.6486    0.5169 C   0  0  0  0  0  0  0  0  0  0  0  0
   -6.4198    3.4289    1.0995 C   0  0  0  0  0  0  0  0  0  0  0  0
   -6.6041    4.7389    0.6394 C   0  0  0  0  0  0  0  0  0  0  0  0
   -5.8107    5.2537   -0.3950 C   0  0  0  0  0  0  0  0  0  0  0  0
   -4.8044    4.4875   -0.9954 C   0  0  0  0  0  0  0  0  0  0  0  0
   -4.6352    3.1906   -0.4999 C   0  0  0  0  0  0  0  0  0  0  0  0
   -3.7513    2.1921   -0.8038 N   0  0  0  0  0  0  0  0  0  0  0  0
   -0.8557    1.2291    0.1288 C   0  0  0  0  0  0  0  0  0  0  0  0
    0.3496    1.6335   -0.4445 C   0  0  0  0  0  0  0  0  0  0  0  0
    2.1135    1.2011   -3.1666 H   0  0  0  0  0  0  0  0  0  0  0  0
    2.2308    2.4228   -2.0179 H   0  0  0  0  0  0  0  0  0  0  0  0
    0.5243   -0.6309   -2.9541 H   0  0  0  0  0  0  0  0  0  0  0  0
   -1.6457   -1.2947   -2.0151 H   0  0  0  0  0  0  0  0  0  0  0  0
   -1.5735   -2.3788    3.2657 H   0  0  0  0  0  0  0  0  0  0  0  0
   -1.1457   -4.7499    1.9234 H   0  0  0  0  0  0  0  0  0  0  0  0
   -1.8119   -5.9976   -0.1319 H   0  0  0  0  0  0  0  0  0  0  0  0
   -3.4356   -5.0095   -1.7257 H   0  0  0  0  0  0  0  0  0  0  0  0
   -4.2741   -2.6830   -1.3932 H   0  0  0  0  0  0  0  0  0  0  0  0
   -7.0206    3.0257    1.9052 H   0  0  0  0  0  0  0  0  0  0  0  0
   -7.3676    5.3620    1.0956 H   0  0  0  0  0  0  0  0  0  0  0  0
   -5.9780    6.2750   -0.7314 H   0  0  0  0  0  0  0  0  0  0  0  0
   -4.1845    4.8840   -1.7868 H   0  0  0  0  0  0  0  0  0  0  0  0
   -3.0117    2.2490   -1.4909 H   0  0  0  0  0  0  0  0  0  0  0  0
   -1.2065    1.7345    1.0295 H   0  0  0  0  0  0  0  0  0  0  0  0
    0.9135    2.4352    0.0249 H   0  0  0  0  0  0  0  0  0  0  0  0
  1  2  1  0  0  0  0
  1 28  1  0  0  0  0
  1 29  1  0  0  0  0
  2  3  1  0  0  0  0
  2 27  2  0  0  0  0
  3  4  2  0  0  0  0
  3 30  1  0  0  0  0
  4  5  1  0  0  0  0
  4 31  1  0  0  0  0
  5  6  1  0  0  0  0
  5 26  2  0  0  0  0
  6  7  2  3  0  0  0
  6 17  1  0  0  0  0
  7  8  1  0  0  0  0
  7 16  1  0  0  0  0
  8  9  2  0  0  0  0
  8 10  1  0  0  0  0
 10 11  1  0  0  0  0
 10 32  1  0  0  0  0
 11 12  1  0  0  0  0
 11 16  2  0  0  0  0
 12 13  2  0  0  0  0
 12 33  1  0  0  0  0
 13 14  1  0  0  0  0
 13 34  1  0  0  0  0
 14 15  2  0  0  0  0
 14 35  1  0  0  0  0
 15 16  1  0  0  0  0
 15 36  1  0  0  0  0
 17 18  2  0  0  0  0
 17 25  1  0  0  0  0
 18 19  1  0  0  0  0
 19 20  1  0  0  0  0
 19 24  2  0  0  0  0
 20 21  2  0  0  0  0
 20 37  1  0  0  0  0
 21 22  1  0  0  0  0
 21 38  1  0  0  0  0
 22 23  2  0  0  0  0
 22 39  1  0  0  0  0
 23 24  1  0  0  0  0
 23 40  1  0  0  0  0
 24 25  1  0  0  0  0
 25 41  1  0  0  0  0
 26 27  1  0  0  0  0
 26 42  1  0  0  0  0
 27 43  1  0  0  0  0
M  END
$$$$
