CHEMBL363042
 OpenBabel04072215373D

 45 46  0  0  0  0  0  0  0  0999 V2000
    0.9945   -0.0332    0.1521 C   0  0  0  0  0  0  0  0  0  0  0  0
    2.5133   -0.0336    0.1290 C   0  0  0  0  0  0  0  0  0  0  0  0
    3.0506    1.0690   -0.7795 C   0  0  0  0  0  0  0  0  0  0  0  0
    4.5769    1.0670   -0.8020 C   0  0  0  0  0  0  0  0  0  0  0  0
    5.1110    2.1719   -1.7090 C   0  0  0  0  0  0  0  0  0  0  0  0
    6.6375    2.1685   -1.7302 C   0  0  0  0  0  0  0  0  0  0  0  0
    7.1659    3.2735   -2.6374 C   0  0  0  0  0  0  0  0  0  0  0  0
    8.6932    3.2867   -2.6718 C   0  0  0  0  0  0  0  0  0  0  0  0
    9.1808    4.4049   -3.5869 C   0  0  0  0  0  0  0  0  0  0  0  0
   10.7018    4.4648   -3.6611 C   0  0  0  0  0  0  0  0  0  0  0  0
   11.1298    5.5413   -4.5395 N   0  0  0  0  0  0  0  0  0  0  0  0
   11.3678    6.8325   -4.1551 C   0  0  0  0  0  0  0  0  0  0  0  0
   11.5911    7.5074   -5.3217 C   0  0  0  0  0  0  0  0  0  0  0  0
   11.8385    8.8615   -5.4993 C   0  0  0  0  0  0  0  0  0  0  0  0
   11.9277    9.8190   -4.5088 N   0  0  0  0  0  0  0  0  0  0  0  0
   11.9892    9.2081   -6.8006 N   0  0  0  0  0  0  0  0  0  0  0  0
   11.9070    8.2298   -7.7662 C   0  0  0  0  0  0  0  0  0  0  0  0
   11.6667    6.8928   -7.6586 N   0  0  0  0  0  0  0  0  0  0  0  0
   11.4991    6.5466   -6.3621 C   0  0  0  0  0  0  0  0  0  0  0  0
   11.2206    5.3338   -5.8736 N   0  0  0  0  0  0  0  0  0  0  0  0
    0.6248   -0.8284    0.8068 H   0  0  0  0  0  0  0  0  0  0  0  0
    0.5884   -0.2003   -0.8506 H   0  0  0  0  0  0  0  0  0  0  0  0
    0.6095    0.9217    0.5240 H   0  0  0  0  0  0  0  0  0  0  0  0
    2.8702   -1.0100   -0.2188 H   0  0  0  0  0  0  0  0  0  0  0  0
    2.8913    0.1062    1.1485 H   0  0  0  0  0  0  0  0  0  0  0  0
    2.6891    2.0441   -0.4306 H   0  0  0  0  0  0  0  0  0  0  0  0
    2.6676    0.9280   -1.7977 H   0  0  0  0  0  0  0  0  0  0  0  0
    4.9403    0.0941   -1.1548 H   0  0  0  0  0  0  0  0  0  0  0  0
    4.9623    1.2077    0.2151 H   0  0  0  0  0  0  0  0  0  0  0  0
    4.7482    3.1459   -1.3582 H   0  0  0  0  0  0  0  0  0  0  0  0
    4.7271    2.0322   -2.7271 H   0  0  0  0  0  0  0  0  0  0  0  0
    7.0008    1.1958   -2.0828 H   0  0  0  0  0  0  0  0  0  0  0  0
    7.0218    2.3106   -0.7129 H   0  0  0  0  0  0  0  0  0  0  0  0
    6.7979    4.2448   -2.2838 H   0  0  0  0  0  0  0  0  0  0  0  0
    6.7765    3.1333   -3.6535 H   0  0  0  0  0  0  0  0  0  0  0  0
    9.0685    2.3192   -3.0268 H   0  0  0  0  0  0  0  0  0  0  0  0
    9.0851    3.4378   -1.6586 H   0  0  0  0  0  0  0  0  0  0  0  0
    8.7877    5.3630   -3.2230 H   0  0  0  0  0  0  0  0  0  0  0  0
    8.7688    4.2620   -4.5941 H   0  0  0  0  0  0  0  0  0  0  0  0
   11.1249    3.5294   -4.0420 H   0  0  0  0  0  0  0  0  0  0  0  0
   11.1399    4.6604   -2.6758 H   0  0  0  0  0  0  0  0  0  0  0  0
   11.3362    7.1373   -3.1196 H   0  0  0  0  0  0  0  0  0  0  0  0
   11.4842    9.6043   -3.6278 H   0  0  0  0  0  0  0  0  0  0  0  0
   11.8255   10.7629   -4.8641 H   0  0  0  0  0  0  0  0  0  0  0  0
   12.0590    8.5857   -8.7826 H   0  0  0  0  0  0  0  0  0  0  0  0
  1  2  1  0  0  0  0
  1 21  1  0  0  0  0
  1 22  1  0  0  0  0
  1 23  1  0  0  0  0
  2  3  1  0  0  0  0
  2 24  1  0  0  0  0
  2 25  1  0  0  0  0
  3  4  1  0  0  0  0
  3 26  1  0  0  0  0
  3 27  1  0  0  0  0
  4  5  1  0  0  0  0
  4 28  1  0  0  0  0
  4 29  1  0  0  0  0
  5  6  1  0  0  0  0
  5 30  1  0  0  0  0
  5 31  1  0  0  0  0
  6  7  1  0  0  0  0
  6 32  1  0  0  0  0
  6 33  1  0  0  0  0
  7  8  1  0  0  0  0
  7 34  1  0  0  0  0
  7 35  1  0  0  0  0
  8  9  1  0  0  0  0
  8 36  1  0  0  0  0
  8 37  1  0  0  0  0
  9 10  1  0  0  0  0
  9 38  1  0  0  0  0
  9 39  1  0  0  0  0
 10 11  1  0  0  0  0
 10 40  1  0  0  0  0
 10 41  1  0  0  0  0
 11 12  1  0  0  0  0
 11 20  1  0  0  0  0
 12 13  2  0  0  0  0
 12 42  1  0  0  0  0
 13 14  1  0  0  0  0
 13 19  1  0  0  0  0
 14 15  1  0  0  0  0
 14 16  2  0  0  0  0
 15 43  1  0  0  0  0
 15 44  1  0  0  0  0
 16 17  1  0  0  0  0
 17 18  2  0  0  0  0
 17 45  1  0  0  0  0
 18 19  1  0  0  0  0
 19 20  2  0  0  0  0
M  END
$$$$
