CHEMBL3956120
 OpenBabel04072215373D

 63 67  0  0  0  0  0  0  0  0999 V2000
    1.2979    4.9930    0.8807 C   0  0  0  0  0  0  0  0  0  0  0  0
    2.6001    4.9720    0.2929 O   0  0  0  0  0  0  0  0  0  0  0  0
    3.1453    3.7361    0.0357 C   0  0  0  0  0  0  0  0  0  0  0  0
    2.5121    2.5278    0.3374 C   0  0  0  0  0  0  0  0  0  0  0  0
    3.1198    1.3313   -0.0083 C   0  0  0  0  0  0  0  0  0  0  0  0
    2.6088    0.0770    0.2052 O   0  0  0  0  0  0  0  0  0  0  0  0
    1.3966   -0.0119    0.9441 C   0  0  0  0  0  0  0  0  0  0  0  0
    4.3650    1.3546   -0.6535 C   0  0  0  0  0  0  0  0  0  0  0  0
    5.0700    2.5418   -0.9486 C   0  0  0  0  0  0  0  0  0  0  0  0
    6.3151    2.5386   -1.6379 N   0  0  0  0  0  0  0  0  0  0  0  0
    6.8333    1.2095   -2.1576 C   0  0  0  0  0  0  0  0  0  0  0  0
    6.4800    0.7928   -3.6256 C   0  0  0  0  0  0  0  0  0  0  0  0
    5.0283    0.3676   -3.9190 C   0  0  0  0  0  0  0  0  0  0  0  0
    4.8990   -0.1841   -5.3479 C   0  0  0  0  0  0  0  0  0  0  0  0
    5.7638   -1.3032   -5.5423 O   0  0  0  0  0  0  0  0  0  0  0  0
    7.1327   -0.9459   -5.3956 C   0  0  0  0  0  0  0  0  0  0  0  0
    7.3959   -0.4040   -3.9972 C   0  0  0  0  0  0  0  0  0  0  0  0
    7.4141    3.4833   -1.5821 C   0  0  0  0  0  0  0  0  0  0  0  0
    8.0491    3.7224   -2.7973 C   0  0  0  0  0  0  0  0  0  0  0  0
    9.3835    4.0863   -2.8319 C   0  0  0  0  0  0  0  0  0  0  0  0
   10.0861    4.3642   -1.6747 C   0  0  0  0  0  0  0  0  0  0  0  0
   11.4022    4.4817   -1.8610 N   0  0  0  0  0  0  0  0  0  0  0  0
   12.1175    4.9305   -0.8240 C   0  0  0  0  0  0  0  0  0  0  0  0
   11.5283    5.3494    0.3499 C   0  0  0  0  0  0  0  0  0  0  0  0
   12.3505    6.2406    1.1726 C   0  0  0  0  0  0  0  0  0  0  0  0
   12.3697    7.6629    1.1931 C   0  0  0  0  0  0  0  0  0  0  0  0
   13.4382    8.1674    1.8241 N   0  0  0  0  0  0  0  0  0  0  0  0
   14.1219    7.0756    2.2041 N   0  0  0  0  0  0  0  0  0  0  0  0
   15.2476    7.1947    3.1033 C   0  0  0  0  0  0  0  0  0  0  0  0
   13.5891    5.9146    1.7076 C   0  0  0  0  0  0  0  0  0  0  0  0
   10.1883    5.1196    0.5904 N   0  0  0  0  0  0  0  0  0  0  0  0
    9.4289    4.5229   -0.4307 C   0  0  0  0  0  0  0  0  0  0  0  0
    8.0716    3.9865   -0.4093 C   0  0  0  0  0  0  0  0  0  0  0  0
    4.4160    3.7355   -0.5892 C   0  0  0  0  0  0  0  0  0  0  0  0
    0.9861    6.0359    0.9889 H   0  0  0  0  0  0  0  0  0  0  0  0
    1.3096    4.5466    1.8817 H   0  0  0  0  0  0  0  0  0  0  0  0
    0.5582    4.4958    0.2415 H   0  0  0  0  0  0  0  0  0  0  0  0
    1.5461    2.5167    0.8242 H   0  0  0  0  0  0  0  0  0  0  0  0
    1.1499   -1.0724    1.0604 H   0  0  0  0  0  0  0  0  0  0  0  0
    0.5698    0.4636    0.4066 H   0  0  0  0  0  0  0  0  0  0  0  0
    1.5119    0.4138    1.9471 H   0  0  0  0  0  0  0  0  0  0  0  0
    4.7556    0.3792   -0.9161 H   0  0  0  0  0  0  0  0  0  0  0  0
    6.6199    0.3925   -1.4637 H   0  0  0  0  0  0  0  0  0  0  0  0
    7.9328    1.2371   -2.1198 H   0  0  0  0  0  0  0  0  0  0  0  0
    6.7155    1.6171   -4.3088 H   0  0  0  0  0  0  0  0  0  0  0  0
    4.3360    1.2054   -3.7931 H   0  0  0  0  0  0  0  0  0  0  0  0
    4.7357   -0.4284   -3.2243 H   0  0  0  0  0  0  0  0  0  0  0  0
    5.1244    0.5792   -6.1024 H   0  0  0  0  0  0  0  0  0  0  0  0
    3.8757   -0.5317   -5.5338 H   0  0  0  0  0  0  0  0  0  0  0  0
    7.4125   -0.2228   -6.1692 H   0  0  0  0  0  0  0  0  0  0  0  0
    7.7345   -1.8484   -5.5622 H   0  0  0  0  0  0  0  0  0  0  0  0
    8.4510   -0.1244   -3.9097 H   0  0  0  0  0  0  0  0  0  0  0  0
    7.2071   -1.2146   -3.2806 H   0  0  0  0  0  0  0  0  0  0  0  0
    7.5518    3.5033   -3.7356 H   0  0  0  0  0  0  0  0  0  0  0  0
    9.9098    4.0929   -3.7687 H   0  0  0  0  0  0  0  0  0  0  0  0
   13.1851    5.0023   -0.9952 H   0  0  0  0  0  0  0  0  0  0  0  0
   11.6791    8.3560    0.7284 H   0  0  0  0  0  0  0  0  0  0  0  0
   15.4275    8.2471    3.3428 H   0  0  0  0  0  0  0  0  0  0  0  0
   16.1361    6.7595    2.6391 H   0  0  0  0  0  0  0  0  0  0  0  0
   14.9919    6.6528    4.0178 H   0  0  0  0  0  0  0  0  0  0  0  0
   14.1285    4.9817    1.7851 H   0  0  0  0  0  0  0  0  0  0  0  0
    7.5719    3.9120    0.5559 H   0  0  0  0  0  0  0  0  0  0  0  0
    4.8672    4.6945   -0.8332 H   0  0  0  0  0  0  0  0  0  0  0  0
  1  2  1  0  0  0  0
  1 35  1  0  0  0  0
  1 36  1  0  0  0  0
  1 37  1  0  0  0  0
  2  3  1  0  0  0  0
  3  4  1  0  0  0  0
  3 34  2  0  0  0  0
  4  5  2  0  0  0  0
  4 38  1  0  0  0  0
  5  6  1  0  0  0  0
  5  8  1  0  0  0  0
  6  7  1  0  0  0  0
  7 39  1  0  0  0  0
  7 40  1  0  0  0  0
  7 41  1  0  0  0  0
  8  9  2  0  0  0  0
  8 42  1  0  0  0  0
  9 10  1  0  0  0  0
  9 34  1  0  0  0  0
 10 11  1  0  0  0  0
 10 18  1  0  0  0  0
 11 12  1  0  0  0  0
 11 43  1  0  0  0  0
 11 44  1  0  0  0  0
 12 13  1  0  0  0  0
 12 17  1  0  0  0  0
 12 45  1  0  0  0  0
 13 14  1  0  0  0  0
 13 46  1  0  0  0  0
 13 47  1  0  0  0  0
 14 15  1  0  0  0  0
 14 48  1  0  0  0  0
 14 49  1  0  0  0  0
 15 16  1  0  0  0  0
 16 17  1  0  0  0  0
 16 50  1  0  0  0  0
 16 51  1  0  0  0  0
 17 52  1  0  0  0  0
 17 53  1  0  0  0  0
 18 19  1  0  0  0  0
 18 33  2  0  0  0  0
 19 20  2  0  0  0  0
 19 54  1  0  0  0  0
 20 21  1  0  0  0  0
 20 55  1  0  0  0  0
 21 22  1  0  0  0  0
 21 32  2  0  0  0  0
 22 23  2  0  0  0  0
 23 24  1  0  0  0  0
 23 56  1  0  0  0  0
 24 25  1  0  0  0  0
 24 31  2  0  0  0  0
 25 26  1  0  0  0  0
 25 30  2  0  0  0  0
 26 27  2  0  0  0  0
 26 57  1  0  0  0  0
 27 28  1  0  0  0  0
 28 29  1  0  0  0  0
 28 30  1  0  0  0  0
 29 58  1  0  0  0  0
 29 59  1  0  0  0  0
 29 60  1  0  0  0  0
 30 61  1  0  0  0  0
 31 32  1  0  0  0  0
 32 33  1  0  0  0  0
 33 62  1  0  0  0  0
 34 63  1  0  0  0  0
M  END
$$$$
