CHEMBL3814828
 OpenBabel04072215373D

 73 77  0  0  0  0  0  0  0  0999 V2000
    0.1248   -2.0786    1.1599 N   0  0  0  0  0  0  0  0  0  0  0  0
    0.0631   -0.8101    0.5877 C   0  0  0  0  0  0  0  0  0  0  0  0
    1.0036   -0.5892   -0.3485 N   0  0  0  0  0  0  0  0  0  0  0  0
    0.9082    0.5510   -1.0401 C   0  0  0  0  0  0  0  0  0  0  0  0
   -0.0263    1.4889   -0.8758 N   0  0  0  0  0  0  0  0  0  0  0  0
   -0.9167    1.2680    0.1185 C   0  0  0  0  0  0  0  0  0  0  0  0
   -1.8415    2.2754    0.3764 O   0  0  0  0  0  0  0  0  0  0  0  0
   -1.4872    3.5737    0.0491 C   0  0  0  0  0  0  0  0  0  0  0  0
   -2.4642    4.3655   -0.5620 C   0  0  0  0  0  0  0  0  0  0  0  0
   -2.2112    5.7177   -0.8414 C   0  0  0  0  0  0  0  0  0  0  0  0
   -1.0026    6.3061   -0.4536 C   0  0  0  0  0  0  0  0  0  0  0  0
   -0.8540    7.6986   -0.6292 N   0  0  0  0  0  0  0  0  0  0  0  0
   -0.2926    8.5202    0.3359 C   0  0  0  0  0  0  0  0  0  0  0  0
    0.2248    8.1626    1.3864 O   0  0  0  0  0  0  0  0  0  0  0  0
   -0.4433    9.9926    0.0644 C   0  0  0  0  0  0  0  0  0  0  0  0
   -1.8553   10.5088    0.0446 C   0  0  0  0  0  0  0  0  0  0  0  0
   -2.5372   10.2071   -0.9292 O   0  0  0  0  0  0  0  0  0  0  0  0
   -2.2446   11.2382    1.1511 N   0  0  0  0  0  0  0  0  0  0  0  0
   -3.5017   11.8422    1.3703 C   0  0  0  0  0  0  0  0  0  0  0  0
   -4.5384   11.8323    0.4313 C   0  0  0  0  0  0  0  0  0  0  0  0
   -5.7785   12.4039    0.7325 C   0  0  0  0  0  0  0  0  0  0  0  0
   -5.9790   12.9977    1.9680 C   0  0  0  0  0  0  0  0  0  0  0  0
   -7.1746   13.5262    2.2636 F   0  0  0  0  0  0  0  0  0  0  0  0
   -4.9536   13.0517    2.9030 C   0  0  0  0  0  0  0  0  0  0  0  0
   -3.7128   12.4760    2.6020 C   0  0  0  0  0  0  0  0  0  0  0  0
    0.5028   10.6244   -0.9628 C   0  0  0  0  0  0  0  0  0  0  0  0
    0.7118   10.9016    0.4913 C   0  0  0  0  0  0  0  0  0  0  0  0
   -0.0147    5.5131    0.1337 C   0  0  0  0  0  0  0  0  0  0  0  0
   -0.2616    4.1605    0.3848 C   0  0  0  0  0  0  0  0  0  0  0  0
    0.6989    3.4459    0.9924 F   0  0  0  0  0  0  0  0  0  0  0  0
   -0.9528    0.0989    0.8640 C   0  0  0  0  0  0  0  0  0  0  0  0
   -1.9946   -0.1749    1.8798 C   0  0  0  0  0  0  0  0  0  0  0  0
   -1.7928   -1.0120    2.8534 N   0  0  0  0  0  0  0  0  0  0  0  0
   -2.9557   -1.1577    3.6383 O   0  0  0  0  0  0  0  0  0  0  0  0
   -2.6669   -2.1136    4.6679 C   0  0  0  0  0  0  0  0  0  0  0  0
   -3.8429   -2.3030    5.6220 C   0  0  0  0  0  0  0  0  0  0  0  0
   -5.0909   -2.9701    5.0242 C   0  0  0  0  0  0  0  0  0  0  0  0
   -4.9138   -4.3028    4.4363 N   0  0  0  0  0  0  0  0  0  0  0  0
   -6.1948   -4.8945    4.0142 C   0  0  0  0  0  0  0  0  0  0  0  0
   -6.2022   -6.3310    4.5195 C   0  0  0  0  0  0  0  0  0  0  0  0
   -4.7503   -6.6226    4.8272 C   0  0  0  0  0  0  0  0  0  0  0  0
   -4.2217   -5.2748    5.2840 C   0  0  0  0  0  0  0  0  0  0  0  0
    1.0119   -2.5156    0.9371 H   0  0  0  0  0  0  0  0  0  0  0  0
   -0.1133   -2.0667    2.1515 H   0  0  0  0  0  0  0  0  0  0  0  0
    1.6581    0.7298   -1.8026 H   0  0  0  0  0  0  0  0  0  0  0  0
   -3.4366    3.9427   -0.8017 H   0  0  0  0  0  0  0  0  0  0  0  0
   -2.9990    6.3212   -1.2871 H   0  0  0  0  0  0  0  0  0  0  0  0
   -1.4947    8.1614   -1.2711 H   0  0  0  0  0  0  0  0  0  0  0  0
   -1.5695   11.3080    1.8978 H   0  0  0  0  0  0  0  0  0  0  0  0
   -4.4218   11.3845   -0.5495 H   0  0  0  0  0  0  0  0  0  0  0  0
   -6.5869   12.3778    0.0075 H   0  0  0  0  0  0  0  0  0  0  0  0
   -5.1280   13.5346    3.8592 H   0  0  0  0  0  0  0  0  0  0  0  0
   -2.9267   12.5263    3.3519 H   0  0  0  0  0  0  0  0  0  0  0  0
    0.1285   11.4386   -1.5772 H   0  0  0  0  0  0  0  0  0  0  0  0
    1.2090    9.9817   -1.4754 H   0  0  0  0  0  0  0  0  0  0  0  0
    0.5014   11.9010    0.8523 H   0  0  0  0  0  0  0  0  0  0  0  0
    1.5716   10.4408    0.9706 H   0  0  0  0  0  0  0  0  0  0  0  0
    0.9525    5.9247    0.4068 H   0  0  0  0  0  0  0  0  0  0  0  0
   -2.9598    0.3508    1.7769 H   0  0  0  0  0  0  0  0  0  0  0  0
   -1.8181   -1.7340    5.2511 H   0  0  0  0  0  0  0  0  0  0  0  0
   -2.3678   -3.0661    4.2172 H   0  0  0  0  0  0  0  0  0  0  0  0
   -4.1475   -1.3201    6.0039 H   0  0  0  0  0  0  0  0  0  0  0  0
   -3.5057   -2.8818    6.4912 H   0  0  0  0  0  0  0  0  0  0  0  0
   -5.5060   -2.3023    4.2593 H   0  0  0  0  0  0  0  0  0  0  0  0
   -5.8390   -3.0247    5.8284 H   0  0  0  0  0  0  0  0  0  0  0  0
   -6.2416   -4.8805    2.9198 H   0  0  0  0  0  0  0  0  0  0  0  0
   -7.0786   -4.3639    4.3886 H   0  0  0  0  0  0  0  0  0  0  0  0
   -6.6197   -7.0315    3.7900 H   0  0  0  0  0  0  0  0  0  0  0  0
   -6.7965   -6.4021    5.4390 H   0  0  0  0  0  0  0  0  0  0  0  0
   -4.2329   -6.9584    3.9206 H   0  0  0  0  0  0  0  0  0  0  0  0
   -4.6376   -7.3954    5.5936 H   0  0  0  0  0  0  0  0  0  0  0  0
   -3.1375   -5.2202    5.1443 H   0  0  0  0  0  0  0  0  0  0  0  0
   -4.4491   -5.1324    6.3467 H   0  0  0  0  0  0  0  0  0  0  0  0
  1  2  1  0  0  0  0
  1 43  1  0  0  0  0
  1 44  1  0  0  0  0
  2  3  1  0  0  0  0
  2 31  2  0  0  0  0
  3  4  2  0  0  0  0
  4  5  1  0  0  0  0
  4 45  1  0  0  0  0
  5  6  2  0  0  0  0
  6  7  1  0  0  0  0
  6 31  1  0  0  0  0
  7  8  1  0  0  0  0
  8  9  1  0  0  0  0
  8 29  2  0  0  0  0
  9 10  2  0  0  0  0
  9 46  1  0  0  0  0
 10 11  1  0  0  0  0
 10 47  1  0  0  0  0
 11 12  1  0  0  0  0
 11 28  2  0  0  0  0
 12 13  1  0  0  0  0
 12 48  1  0  0  0  0
 13 14  2  0  0  0  0
 13 15  1  0  0  0  0
 15 16  1  0  0  0  0
 15 26  1  0  0  0  0
 15 27  1  0  0  0  0
 16 17  2  0  0  0  0
 16 18  1  0  0  0  0
 18 19  1  0  0  0  0
 18 49  1  0  0  0  0
 19 20  1  0  0  0  0
 19 25  2  0  0  0  0
 20 21  2  0  0  0  0
 20 50  1  0  0  0  0
 21 22  1  0  0  0  0
 21 51  1  0  0  0  0
 22 23  1  0  0  0  0
 22 24  2  0  0  0  0
 24 25  1  0  0  0  0
 24 52  1  0  0  0  0
 25 53  1  0  0  0  0
 26 27  1  0  0  0  0
 26 54  1  0  0  0  0
 26 55  1  0  0  0  0
 27 56  1  0  0  0  0
 27 57  1  0  0  0  0
 28 29  1  0  0  0  0
 28 58  1  0  0  0  0
 29 30  1  0  0  0  0
 31 32  1  0  0  0  0
 32 33  2  0  0  0  0
 32 59  1  0  0  0  0
 33 34  1  0  0  0  0
 34 35  1  0  0  0  0
 35 36  1  0  0  0  0
 35 60  1  0  0  0  0
 35 61  1  0  0  0  0
 36 37  1  0  0  0  0
 36 62  1  0  0  0  0
 36 63  1  0  0  0  0
 37 38  1  0  0  0  0
 37 64  1  0  0  0  0
 37 65  1  0  0  0  0
 38 39  1  0  0  0  0
 38 42  1  0  0  0  0
 39 40  1  0  0  0  0
 39 66  1  0  0  0  0
 39 67  1  0  0  0  0
 40 41  1  0  0  0  0
 40 68  1  0  0  0  0
 40 69  1  0  0  0  0
 41 42  1  0  0  0  0
 41 70  1  0  0  0  0
 41 71  1  0  0  0  0
 42 72  1  0  0  0  0
 42 73  1  0  0  0  0
M  END
$$$$
