CHEMBL3109345
 OpenBabel04072215363D

 57 61  0  0  1  0  0  0  0  0999 V2000
    0.5410    2.0911    5.6264 C   0  0  0  0  0  0  0  0  0  0  0  0
    1.8390    1.5258    5.5308 O   0  0  0  0  0  0  0  0  0  0  0  0
    2.7380    2.3780    4.8206 C   0  0  0  0  0  0  0  0  0  0  0  0
    4.1000    1.7042    4.7865 C   0  0  0  0  0  0  0  0  0  0  0  0
    5.0367    2.5138    4.0723 O   0  0  0  0  0  0  0  0  0  0  0  0
    6.3272    2.0311    4.0416 C   0  0  0  0  0  0  0  0  0  0  0  0
    7.2483    2.8848    3.3011 C   0  0  0  0  0  0  0  0  0  0  0  0
    8.5423    2.5325    3.1951 C   0  0  0  0  0  0  0  0  0  0  0  0
    8.9899    1.3555    3.8021 N   0  0  0  0  0  0  0  0  0  0  0  0
   10.2340    0.7481    3.8300 C   0  0  0  0  0  0  0  0  0  0  0  0
   11.4457    1.2050    3.1673 C   0  0  0  0  0  0  0  0  0  0  0  0
   12.3531    0.2755    2.6881 C   0  0  0  0  0  0  0  0  0  0  0  0
   13.5285    0.7371    2.1250 C   0  0  0  0  0  0  0  0  0  0  0  0
   13.7792    2.1095    2.0846 C   0  0  0  0  0  0  0  0  0  0  0  0
   14.9983    2.5440    1.5565 C   0  0  0  0  0  0  0  0  0  0  0  0
   15.3160    3.8885    1.5658 C   0  0  0  0  0  0  0  0  0  0  0  0
   14.3969    4.8065    2.0588 C   0  0  0  0  0  0  0  0  0  0  0  0
   13.1298    4.3978    2.5200 C   0  0  0  0  0  0  0  0  0  0  0  0
   12.1908    5.3191    2.9614 O   0  0  0  0  0  0  0  0  0  0  0  0
   12.2518    6.6410    2.3773 C   0  0  2  0  0  0  0  0  0  0  0  0
   12.9949    7.6300    3.2907 C   0  0  0  0  0  0  0  0  0  0  0  0
   12.1394    8.1656    4.4366 C   0  0  0  0  0  0  0  0  0  0  0  0
   10.7721    8.6543    3.9731 C   0  0  0  0  0  0  0  0  0  0  0  0
   10.0598    7.6378    3.2078 N   0  0  0  0  0  0  0  0  0  0  0  0
   10.8356    7.1702    2.0540 C   0  0  0  0  0  0  0  0  0  0  0  0
   12.8078    3.0219    2.5823 C   0  0  0  0  0  0  0  0  0  0  0  0
   11.6440    2.5444    3.1051 N   0  0  0  0  0  0  0  0  0  0  0  0
   10.0403   -0.3988    4.5869 C   0  0  0  0  0  0  0  0  0  0  0  0
    8.7480   -0.5399    4.9945 N   0  0  0  0  0  0  0  0  0  0  0  0
    8.1334    0.5167    4.5146 C   0  0  0  0  0  0  0  0  0  0  0  0
    6.7689    0.8908    4.6158 C   0  0  0  0  0  0  0  0  0  0  0  0
   -0.0971    1.3934    6.1754 H   0  0  0  0  0  0  0  0  0  0  0  0
    0.1175    2.2431    4.6295 H   0  0  0  0  0  0  0  0  0  0  0  0
    0.5769    3.0375    6.1737 H   0  0  0  0  0  0  0  0  0  0  0  0
    2.8152    3.3497    5.3221 H   0  0  0  0  0  0  0  0  0  0  0  0
    2.3746    2.5478    3.8008 H   0  0  0  0  0  0  0  0  0  0  0  0
    4.0023    0.7240    4.3018 H   0  0  0  0  0  0  0  0  0  0  0  0
    4.4339    1.5509    5.8210 H   0  0  0  0  0  0  0  0  0  0  0  0
    6.8728    3.7964    2.8492 H   0  0  0  0  0  0  0  0  0  0  0  0
    9.2668    3.1333    2.6597 H   0  0  0  0  0  0  0  0  0  0  0  0
   12.1691   -0.7922    2.7531 H   0  0  0  0  0  0  0  0  0  0  0  0
   14.2522    0.0166    1.7510 H   0  0  0  0  0  0  0  0  0  0  0  0
   15.7209    1.8327    1.1602 H   0  0  0  0  0  0  0  0  0  0  0  0
   16.2799    4.2256    1.1970 H   0  0  0  0  0  0  0  0  0  0  0  0
   14.7028    5.8462    2.0833 H   0  0  0  0  0  0  0  0  0  0  0  0
   12.7608    6.5917    1.4084 H   0  0  0  0  0  0  0  0  0  0  0  0
   13.3250    8.4805    2.6806 H   0  0  0  0  0  0  0  0  0  0  0  0
   13.8920    7.1738    3.7223 H   0  0  0  0  0  0  0  0  0  0  0  0
   12.6705    8.9973    4.9166 H   0  0  0  0  0  0  0  0  0  0  0  0
   12.0163    7.3875    5.1988 H   0  0  0  0  0  0  0  0  0  0  0  0
   10.8752    9.5733    3.3826 H   0  0  0  0  0  0  0  0  0  0  0  0
   10.1727    8.9129    4.8539 H   0  0  0  0  0  0  0  0  0  0  0  0
    9.1724    8.0202    2.8824 H   0  0  0  0  0  0  0  0  0  0  0  0
   10.9321    8.0048    1.3457 H   0  0  0  0  0  0  0  0  0  0  0  0
   10.2607    6.3857    1.5512 H   0  0  0  0  0  0  0  0  0  0  0  0
   10.7795   -1.1439    4.8524 H   0  0  0  0  0  0  0  0  0  0  0  0
    6.1331    0.2161    5.1720 H   0  0  0  0  0  0  0  0  0  0  0  0
  1  2  1  0  0  0  0
  1 32  1  0  0  0  0
  1 33  1  0  0  0  0
  1 34  1  0  0  0  0
  2  3  1  0  0  0  0
  3  4  1  0  0  0  0
  3 35  1  0  0  0  0
  3 36  1  0  0  0  0
  4  5  1  0  0  0  0
  4 37  1  0  0  0  0
  4 38  1  0  0  0  0
  5  6  1  0  0  0  0
  6  7  1  0  0  0  0
  6 31  2  0  0  0  0
  7  8  2  0  0  0  0
  7 39  1  0  0  0  0
  8  9  1  0  0  0  0
  8 40  1  0  0  0  0
  9 10  1  0  0  0  0
  9 30  1  0  0  0  0
 10 11  1  0  0  0  0
 10 28  2  0  0  0  0
 11 12  1  0  0  0  0
 11 27  2  0  0  0  0
 12 13  2  0  0  0  0
 12 41  1  0  0  0  0
 13 14  1  0  0  0  0
 13 42  1  0  0  0  0
 14 15  1  0  0  0  0
 14 26  2  0  0  0  0
 15 16  2  0  0  0  0
 15 43  1  0  0  0  0
 16 17  1  0  0  0  0
 16 44  1  0  0  0  0
 17 18  2  0  0  0  0
 17 45  1  0  0  0  0
 18 19  1  0  0  0  0
 18 26  1  0  0  0  0
 19 20  1  0  0  0  0
 20 21  1  0  0  0  0
 20 25  1  0  0  0  0
 20 46  1  6  0  0  0
 21 22  1  0  0  0  0
 21 47  1  0  0  0  0
 21 48  1  0  0  0  0
 22 23  1  0  0  0  0
 22 49  1  0  0  0  0
 22 50  1  0  0  0  0
 23 24  1  0  0  0  0
 23 51  1  0  0  0  0
 23 52  1  0  0  0  0
 24 25  1  0  0  0  0
 24 53  1  0  0  0  0
 25 54  1  0  0  0  0
 25 55  1  0  0  0  0
 26 27  1  0  0  0  0
 28 29  1  0  0  0  0
 28 56  1  0  0  0  0
 29 30  2  0  0  0  0
 30 31  1  0  0  0  0
 31 57  1  0  0  0  0
M  END
$$$$
