CHEMBL3923190
 OpenBabel04072215373D

 66 70  0  0  0  0  0  0  0  0999 V2000
    0.5975   -2.6798    3.4878 C   0  0  0  0  0  0  0  0  0  0  0  0
    2.0121   -2.8138    3.6784 O   0  0  0  0  0  0  0  0  0  0  0  0
    2.8230   -2.3428    2.6758 C   0  0  0  0  0  0  0  0  0  0  0  0
    2.3610   -1.9286    1.4245 C   0  0  0  0  0  0  0  0  0  0  0  0
    3.2532   -1.4066    0.4978 C   0  0  0  0  0  0  0  0  0  0  0  0
    2.9461   -0.9417   -0.7524 O   0  0  0  0  0  0  0  0  0  0  0  0
    1.5999   -1.0702   -1.1852 C   0  0  0  0  0  0  0  0  0  0  0  0
    4.6076   -1.2950    0.8289 C   0  0  0  0  0  0  0  0  0  0  0  0
    5.1239   -1.6903    2.0742 C   0  0  0  0  0  0  0  0  0  0  0  0
    6.4524   -1.3754    2.4660 N   0  0  0  0  0  0  0  0  0  0  0  0
    6.9808   -0.0432    1.9788 C   0  0  0  0  0  0  0  0  0  0  0  0
    6.6409    1.1115    2.9056 C   0  0  0  0  0  0  0  0  0  0  0  0
    7.3104    2.2954    2.9226 C   0  0  0  0  0  0  0  0  0  0  0  0
    8.3911    2.6972    1.9886 C   0  0  0  0  0  0  0  0  0  0  0  0
    8.2127    2.2658    0.7047 N   0  0  0  0  0  0  0  0  0  0  0  0
    9.1275    2.6328   -0.2135 C   0  0  0  0  0  0  0  0  0  0  0  0
   10.2354    3.4017    0.0828 C   0  0  0  0  0  0  0  0  0  0  0  0
   10.4017    3.8430    1.3919 C   0  0  0  0  0  0  0  0  0  0  0  0
    9.4659    3.4973    2.3799 C   0  0  0  0  0  0  0  0  0  0  0  0
    9.5717    3.8666    3.6921 O   0  0  0  0  0  0  0  0  0  0  0  0
   10.4694    4.9314    3.9948 C   0  0  0  0  0  0  0  0  0  0  0  0
    7.5717   -2.2331    2.7582 C   0  0  0  0  0  0  0  0  0  0  0  0
    8.4054   -1.7642    3.7755 C   0  0  0  0  0  0  0  0  0  0  0  0
    9.7435   -2.0788    3.7771 C   0  0  0  0  0  0  0  0  0  0  0  0
   10.2754   -2.9788    2.8782 C   0  0  0  0  0  0  0  0  0  0  0  0
   11.6139   -3.0257    2.8929 N   0  0  0  0  0  0  0  0  0  0  0  0
   12.1823   -3.9881    2.1589 C   0  0  0  0  0  0  0  0  0  0  0  0
   11.4474   -4.9400    1.4829 C   0  0  0  0  0  0  0  0  0  0  0  0
   12.1939   -6.1204    1.0516 C   0  0  0  0  0  0  0  0  0  0  0  0
   12.3777   -7.3643    1.7173 C   0  0  0  0  0  0  0  0  0  0  0  0
   13.3457   -8.1098    1.1691 N   0  0  0  0  0  0  0  0  0  0  0  0
   13.7873   -7.3512    0.1527 N   0  0  0  0  0  0  0  0  0  0  0  0
   14.6352   -7.9152   -0.8704 C   0  0  0  0  0  0  0  0  0  0  0  0
   13.2517   -6.0925    0.1588 C   0  0  0  0  0  0  0  0  0  0  0  0
   10.0791   -4.8298    1.3779 N   0  0  0  0  0  0  0  0  0  0  0  0
    9.4532   -3.7686    2.0388 C   0  0  0  0  0  0  0  0  0  0  0  0
    8.0713   -3.3102    1.9642 C   0  0  0  0  0  0  0  0  0  0  0  0
    4.2046   -2.2553    2.9804 C   0  0  0  0  0  0  0  0  0  0  0  0
    0.0999   -2.8918    4.4390 H   0  0  0  0  0  0  0  0  0  0  0  0
    0.2318   -3.4066    2.7540 H   0  0  0  0  0  0  0  0  0  0  0  0
    0.3129   -1.6603    3.1992 H   0  0  0  0  0  0  0  0  0  0  0  0
    1.3090   -1.9975    1.1786 H   0  0  0  0  0  0  0  0  0  0  0  0
    1.5559   -0.7410   -2.2277 H   0  0  0  0  0  0  0  0  0  0  0  0
    0.9365   -0.4243   -0.6009 H   0  0  0  0  0  0  0  0  0  0  0  0
    1.2692   -2.1131   -1.1522 H   0  0  0  0  0  0  0  0  0  0  0  0
    5.2563   -0.8699    0.0705 H   0  0  0  0  0  0  0  0  0  0  0  0
    6.6301    0.1968    0.9778 H   0  0  0  0  0  0  0  0  0  0  0  0
    8.0726   -0.0820    1.8916 H   0  0  0  0  0  0  0  0  0  0  0  0
    5.8119    0.9762    3.5920 H   0  0  0  0  0  0  0  0  0  0  0  0
    7.0223    3.0629    3.6334 H   0  0  0  0  0  0  0  0  0  0  0  0
    8.9397    2.2714   -1.2196 H   0  0  0  0  0  0  0  0  0  0  0  0
   10.9513    3.6646   -0.6943 H   0  0  0  0  0  0  0  0  0  0  0  0
   11.2882    4.4263    1.6189 H   0  0  0  0  0  0  0  0  0  0  0  0
   10.3308    5.2005    5.0464 H   0  0  0  0  0  0  0  0  0  0  0  0
   10.2470    5.8197    3.3933 H   0  0  0  0  0  0  0  0  0  0  0  0
   11.5139    4.6241    3.8696 H   0  0  0  0  0  0  0  0  0  0  0  0
    8.0456   -1.0064    4.4728 H   0  0  0  0  0  0  0  0  0  0  0  0
   10.4149   -1.5651    4.4661 H   0  0  0  0  0  0  0  0  0  0  0  0
   13.2680   -4.0048    2.1816 H   0  0  0  0  0  0  0  0  0  0  0  0
   11.8923   -7.7354    2.6099 H   0  0  0  0  0  0  0  0  0  0  0  0
   14.7715   -8.9864   -0.6951 H   0  0  0  0  0  0  0  0  0  0  0  0
   15.6018   -7.4054   -0.8723 H   0  0  0  0  0  0  0  0  0  0  0  0
   14.1267   -7.7690   -1.8279 H   0  0  0  0  0  0  0  0  0  0  0  0
   13.6541   -5.3135   -0.4732 H   0  0  0  0  0  0  0  0  0  0  0  0
    7.4254   -3.7575    1.2096 H   0  0  0  0  0  0  0  0  0  0  0  0
    4.5368   -2.5589    3.9704 H   0  0  0  0  0  0  0  0  0  0  0  0
  1  2  1  0  0  0  0
  1 39  1  0  0  0  0
  1 40  1  0  0  0  0
  1 41  1  0  0  0  0
  2  3  1  0  0  0  0
  3  4  1  0  0  0  0
  3 38  2  0  0  0  0
  4  5  2  0  0  0  0
  4 42  1  0  0  0  0
  5  6  1  0  0  0  0
  5  8  1  0  0  0  0
  6  7  1  0  0  0  0
  7 43  1  0  0  0  0
  7 44  1  0  0  0  0
  7 45  1  0  0  0  0
  8  9  2  0  0  0  0
  8 46  1  0  0  0  0
  9 10  1  0  0  0  0
  9 38  1  0  0  0  0
 10 11  1  0  0  0  0
 10 22  1  0  0  0  0
 11 12  1  0  0  0  0
 11 47  1  0  0  0  0
 11 48  1  0  0  0  0
 12 13  2  0  0  0  0
 12 49  1  0  0  0  0
 13 14  1  0  0  0  0
 13 50  1  0  0  0  0
 14 15  1  0  0  0  0
 14 19  2  0  0  0  0
 15 16  2  0  0  0  0
 16 17  1  0  0  0  0
 16 51  1  0  0  0  0
 17 18  2  0  0  0  0
 17 52  1  0  0  0  0
 18 19  1  0  0  0  0
 18 53  1  0  0  0  0
 19 20  1  0  0  0  0
 20 21  1  0  0  0  0
 21 54  1  0  0  0  0
 21 55  1  0  0  0  0
 21 56  1  0  0  0  0
 22 23  1  0  0  0  0
 22 37  2  0  0  0  0
 23 24  2  0  0  0  0
 23 57  1  0  0  0  0
 24 25  1  0  0  0  0
 24 58  1  0  0  0  0
 25 26  1  0  0  0  0
 25 36  2  0  0  0  0
 26 27  2  0  0  0  0
 27 28  1  0  0  0  0
 27 59  1  0  0  0  0
 28 29  1  0  0  0  0
 28 35  2  0  0  0  0
 29 30  1  0  0  0  0
 29 34  2  0  0  0  0
 30 31  2  0  0  0  0
 30 60  1  0  0  0  0
 31 32  1  0  0  0  0
 32 33  1  0  0  0  0
 32 34  1  0  0  0  0
 33 61  1  0  0  0  0
 33 62  1  0  0  0  0
 33 63  1  0  0  0  0
 34 64  1  0  0  0  0
 35 36  1  0  0  0  0
 36 37  1  0  0  0  0
 37 65  1  0  0  0  0
 38 66  1  0  0  0  0
M  END
$$$$
