CHEMBL3690550
 OpenBabel04072215373D

 56 59  0  0  0  0  0  0  0  0999 V2000
   -2.5569    0.0077   -0.1039 C   0  0  0  0  0  0  0  0  0  0  0  0
   -1.0669    0.1224   -0.0120 C   0  0  0  0  0  0  0  0  0  0  0  0
   -0.3134   -0.4512   -1.0227 C   0  0  0  0  0  0  0  0  0  0  0  0
    1.0241   -0.4866   -1.0502 N   0  0  0  0  0  0  0  0  0  0  0  0
    1.6473    0.0824   -0.0132 C   0  0  0  0  0  0  0  0  0  0  0  0
    3.1357   -0.0239    0.0003 C   0  0  0  0  0  0  0  0  0  0  0  0
    3.8553   -0.7763   -1.0419 C   0  0  0  0  0  0  0  0  0  0  0  0
    5.1936   -0.8762   -1.0184 C   0  0  0  0  0  0  0  0  0  0  0  0
    5.9240   -0.2365   -0.0146 N   0  0  0  0  0  0  0  0  0  0  0  0
    7.3036   -0.1194    0.1948 C   0  0  0  0  0  0  0  0  0  0  0  0
    8.3880   -0.5738   -0.7004 C   0  0  0  0  0  0  0  0  0  0  0  0
    8.2178   -0.5525   -2.0906 C   0  0  0  0  0  0  0  0  0  0  0  0
    9.2194   -0.9981   -2.9454 C   0  0  0  0  0  0  0  0  0  0  0  0
   10.4464   -1.3990   -2.4285 C   0  0  0  0  0  0  0  0  0  0  0  0
   10.6974   -1.3574   -1.0571 C   0  0  0  0  0  0  0  0  0  0  0  0
   11.9700   -1.6695   -0.5094 N   0  0  0  0  0  0  0  0  0  0  0  0
   13.1189   -1.9428   -1.2271 C   0  0  0  0  0  0  0  0  0  0  0  0
   13.2470   -1.9619   -2.4459 O   0  0  0  0  0  0  0  0  0  0  0  0
   14.1894   -2.2608   -0.4187 N   0  0  0  0  0  0  0  0  0  0  0  0
   15.4757   -2.5684   -1.0651 C   0  0  0  0  0  0  0  0  0  0  0  0
   16.2894   -1.3680   -1.5764 C   0  0  0  0  0  0  0  0  0  0  0  0
   15.7720   -0.1881   -1.1647 F   0  0  0  0  0  0  0  0  0  0  0  0
   17.5545   -1.4305   -1.0862 F   0  0  0  0  0  0  0  0  0  0  0  0
   16.3861   -1.3425   -2.9216 F   0  0  0  0  0  0  0  0  0  0  0  0
    9.6483   -0.9730   -0.1953 C   0  0  0  0  0  0  0  0  0  0  0  0
    7.3880    0.5604    1.4017 C   0  0  0  0  0  0  0  0  0  0  0  0
    6.1581    0.9073    1.8976 N   0  0  0  0  0  0  0  0  0  0  0  0
    5.2889    0.4498    1.0229 C   0  0  0  0  0  0  0  0  0  0  0  0
    3.8610    0.5477    0.9928 C   0  0  0  0  0  0  0  0  0  0  0  0
    1.0107    0.6764    1.0225 N   0  0  0  0  0  0  0  0  0  0  0  0
   -0.3493    0.7045    1.0352 C   0  0  0  0  0  0  0  0  0  0  0  0
   -0.9737    1.1904    2.1853 N   0  0  0  0  0  0  0  0  0  0  0  0
   -0.1291    1.3612    3.3690 C   0  0  0  0  0  0  0  0  0  0  0  0
   -2.0654    2.1557    2.1057 C   0  0  0  0  0  0  0  0  0  0  0  0
   -2.8538   -0.6885   -0.8974 H   0  0  0  0  0  0  0  0  0  0  0  0
   -3.0091    0.9679   -0.3651 H   0  0  0  0  0  0  0  0  0  0  0  0
   -2.9819   -0.3745    0.8284 H   0  0  0  0  0  0  0  0  0  0  0  0
   -0.7877   -0.9535   -1.8626 H   0  0  0  0  0  0  0  0  0  0  0  0
    3.2785   -1.2541   -1.8275 H   0  0  0  0  0  0  0  0  0  0  0  0
    5.7270   -1.4530   -1.7604 H   0  0  0  0  0  0  0  0  0  0  0  0
    7.3084   -0.1712   -2.5449 H   0  0  0  0  0  0  0  0  0  0  0  0
    9.0584   -1.0121   -4.0204 H   0  0  0  0  0  0  0  0  0  0  0  0
   11.1927   -1.7276   -3.1435 H   0  0  0  0  0  0  0  0  0  0  0  0
   12.0488   -1.6565    0.4961 H   0  0  0  0  0  0  0  0  0  0  0  0
   14.2265   -1.8173    0.4876 H   0  0  0  0  0  0  0  0  0  0  0  0
   15.2867   -3.2498   -1.9040 H   0  0  0  0  0  0  0  0  0  0  0  0
   16.0635   -3.1240   -0.3283 H   0  0  0  0  0  0  0  0  0  0  0  0
    9.8177   -0.9635    0.8787 H   0  0  0  0  0  0  0  0  0  0  0  0
    8.2892    0.8530    1.9258 H   0  0  0  0  0  0  0  0  0  0  0  0
    3.3918    1.1057    1.7965 H   0  0  0  0  0  0  0  0  0  0  0  0
    0.7506    0.7101    3.3877 H   0  0  0  0  0  0  0  0  0  0  0  0
   -0.7171    1.1054    4.2573 H   0  0  0  0  0  0  0  0  0  0  0  0
    0.2043    2.3999    3.4747 H   0  0  0  0  0  0  0  0  0  0  0  0
   -2.5165    2.2627    1.1207 H   0  0  0  0  0  0  0  0  0  0  0  0
   -1.7286    3.1586    2.3937 H   0  0  0  0  0  0  0  0  0  0  0  0
   -2.8526    1.8575    2.8078 H   0  0  0  0  0  0  0  0  0  0  0  0
  1  2  1  0  0  0  0
  1 35  1  0  0  0  0
  1 36  1  0  0  0  0
  1 37  1  0  0  0  0
  2  3  1  0  0  0  0
  2 31  2  0  0  0  0
  3  4  2  0  0  0  0
  3 38  1  0  0  0  0
  4  5  1  0  0  0  0
  5  6  1  0  0  0  0
  5 30  2  0  0  0  0
  6  7  1  0  0  0  0
  6 29  2  0  0  0  0
  7  8  2  0  0  0  0
  7 39  1  0  0  0  0
  8  9  1  0  0  0  0
  8 40  1  0  0  0  0
  9 10  1  0  0  0  0
  9 28  1  0  0  0  0
 10 11  1  0  0  0  0
 10 26  2  0  0  0  0
 11 12  1  0  0  0  0
 11 25  2  0  0  0  0
 12 13  2  0  0  0  0
 12 41  1  0  0  0  0
 13 14  1  0  0  0  0
 13 42  1  0  0  0  0
 14 15  2  0  0  0  0
 14 43  1  0  0  0  0
 15 16  1  0  0  0  0
 15 25  1  0  0  0  0
 16 17  1  0  0  0  0
 16 44  1  0  0  0  0
 17 18  2  0  0  0  0
 17 19  1  0  0  0  0
 19 20  1  0  0  0  0
 19 45  1  0  0  0  0
 20 21  1  0  0  0  0
 20 46  1  0  0  0  0
 20 47  1  0  0  0  0
 21 22  1  0  0  0  0
 21 23  1  0  0  0  0
 21 24  1  0  0  0  0
 25 48  1  0  0  0  0
 26 27  1  0  0  0  0
 26 49  1  0  0  0  0
 27 28  2  0  0  0  0
 28 29  1  0  0  0  0
 29 50  1  0  0  0  0
 30 31  1  0  0  0  0
 31 32  1  0  0  0  0
 32 33  1  0  0  0  0
 32 34  1  0  0  0  0
 33 51  1  0  0  0  0
 33 52  1  0  0  0  0
 33 53  1  0  0  0  0
 34 54  1  0  0  0  0
 34 55  1  0  0  0  0
 34 56  1  0  0  0  0
M  END
$$$$
