CHEMBL1615278
 OpenBabel04072215363D

 65 69  0  0  1  0  0  0  0  0999 V2000
    4.9985    2.0845   -4.5486 C   0  0  0  0  0  0  0  0  0  0  0  0
    5.3272    3.3313   -3.7176 C   0  0  1  0  0  0  0  0  0  0  0  0
    4.9318    3.1346   -2.3449 O   0  0  0  0  0  0  0  0  0  0  0  0
    3.5915    3.0416   -2.1287 C   0  0  0  0  0  0  0  0  0  0  0  0
    2.5485    3.5454   -2.9638 C   0  0  0  0  0  0  0  0  0  0  0  0
    1.3142    3.2227   -2.4638 C   0  0  0  0  0  0  0  0  0  0  0  0
    0.0819    3.4325   -3.0748 N   0  0  0  0  0  0  0  0  0  0  0  0
   -1.1028    3.7399   -2.4347 C   0  0  0  0  0  0  0  0  0  0  0  0
   -2.0945    3.9434   -3.2698 N   0  0  0  0  0  0  0  0  0  0  0  0
   -1.5701    3.6872   -4.4958 C   0  0  0  0  0  0  0  0  0  0  0  0
   -2.2185    3.6867   -5.7367 C   0  0  0  0  0  0  0  0  0  0  0  0
   -1.5148    3.2833   -6.8798 C   0  0  0  0  0  0  0  0  0  0  0  0
   -0.1785    2.8938   -6.8167 C   0  0  0  0  0  0  0  0  0  0  0  0
    0.5531    2.4079   -7.8910 O   0  0  0  0  0  0  0  0  0  0  0  0
   -0.1898    1.9151   -9.0291 C   0  0  0  0  0  0  0  0  0  0  0  0
   -0.7358    0.5090   -8.7722 C   0  0  0  0  0  0  0  0  0  0  0  0
    0.3637   -0.5524   -8.7754 C   0  0  0  0  0  0  0  0  0  0  0  0
    1.1862   -0.5426   -9.9906 N   0  0  0  0  0  0  0  0  0  0  0  0
    2.3113   -1.4756   -9.8303 C   0  0  0  0  0  0  0  0  0  0  0  0
    1.7093    0.7863  -10.3294 C   0  0  0  0  0  0  0  0  0  0  0  0
    0.6623    1.8952  -10.2994 C   0  0  0  0  0  0  0  0  0  0  0  0
    0.5079    2.9660   -5.5902 C   0  0  0  0  0  0  0  0  0  0  0  0
   -0.2157    3.3614   -4.4349 C   0  0  0  0  0  0  0  0  0  0  0  0
    1.3848    2.4727   -0.9502 S   0  0  0  0  0  0  0  0  0  0  0  0
    3.1029    2.3784   -1.0108 C   0  0  0  0  0  0  0  0  0  0  0  0
    3.7884    1.6366    0.0363 C   0  0  0  0  0  0  0  0  0  0  0  0
    5.1524    1.6475   -0.0211 N   0  0  0  0  0  0  0  0  0  0  0  0
    3.2452    1.0024    0.9379 O   0  0  0  0  0  0  0  0  0  0  0  0
    6.8345    3.5759   -3.7815 C   0  0  0  0  0  0  0  0  0  0  0  0
    7.6593    3.0052   -2.7898 C   0  0  0  0  0  0  0  0  0  0  0  0
    9.0456    3.1369   -2.8215 C   0  0  0  0  0  0  0  0  0  0  0  0
    9.6452    3.8244   -3.8626 C   0  0  0  0  0  0  0  0  0  0  0  0
    8.8573    4.3926   -4.8617 C   0  0  0  0  0  0  0  0  0  0  0  0
    7.4480    4.2884   -4.8426 C   0  0  0  0  0  0  0  0  0  0  0  0
    6.7166    4.9541   -5.9947 C   0  0  0  0  0  0  0  0  0  0  0  0
    5.3630    4.8138   -5.9924 F   0  0  0  0  0  0  0  0  0  0  0  0
    6.9419    6.2985   -6.0346 F   0  0  0  0  0  0  0  0  0  0  0  0
    7.1214    4.4758   -7.2045 F   0  0  0  0  0  0  0  0  0  0  0  0
    3.9370    2.0569   -4.8132 H   0  0  0  0  0  0  0  0  0  0  0  0
    5.1992    1.1719   -3.9746 H   0  0  0  0  0  0  0  0  0  0  0  0
    5.5651    2.0400   -5.4834 H   0  0  0  0  0  0  0  0  0  0  0  0
    4.8276    4.2321   -4.0781 H   0  0  0  0  0  0  0  0  0  0  0  0
    2.6848    4.1087   -3.8785 H   0  0  0  0  0  0  0  0  0  0  0  0
   -1.1658    3.8575   -1.3629 H   0  0  0  0  0  0  0  0  0  0  0  0
   -3.2678    3.9561   -5.7958 H   0  0  0  0  0  0  0  0  0  0  0  0
   -2.0818    3.2803   -7.8024 H   0  0  0  0  0  0  0  0  0  0  0  0
   -1.0045    2.6000   -9.2668 H   0  0  0  0  0  0  0  0  0  0  0  0
   -1.4763    0.2673   -9.5451 H   0  0  0  0  0  0  0  0  0  0  0  0
   -1.2528    0.4629   -7.8074 H   0  0  0  0  0  0  0  0  0  0  0  0
   -0.1297   -1.5311   -8.7062 H   0  0  0  0  0  0  0  0  0  0  0  0
    0.9833   -0.4408   -7.8774 H   0  0  0  0  0  0  0  0  0  0  0  0
    1.9629   -2.4737   -9.5433 H   0  0  0  0  0  0  0  0  0  0  0  0
    3.0157   -1.1320   -9.0612 H   0  0  0  0  0  0  0  0  0  0  0  0
    2.8622   -1.5855  -10.7707 H   0  0  0  0  0  0  0  0  0  0  0  0
    2.1060    0.7391  -11.3537 H   0  0  0  0  0  0  0  0  0  0  0  0
    2.5445    1.0663   -9.6773 H   0  0  0  0  0  0  0  0  0  0  0  0
   -0.0073    1.7621  -11.1609 H   0  0  0  0  0  0  0  0  0  0  0  0
    1.1671    2.8595  -10.4302 H   0  0  0  0  0  0  0  0  0  0  0  0
    1.5482    2.6631   -5.5298 H   0  0  0  0  0  0  0  0  0  0  0  0
    5.6298    2.2379   -0.6860 H   0  0  0  0  0  0  0  0  0  0  0  0
    5.6690    1.1632    0.6978 H   0  0  0  0  0  0  0  0  0  0  0  0
    7.2313    2.4282   -1.9771 H   0  0  0  0  0  0  0  0  0  0  0  0
    9.6488    2.6895   -2.0358 H   0  0  0  0  0  0  0  0  0  0  0  0
   10.7278    3.9143   -3.9014 H   0  0  0  0  0  0  0  0  0  0  0  0
    9.3495    4.9216   -5.6779 H   0  0  0  0  0  0  0  0  0  0  0  0
  1  2  1  0  0  0  0
  1 39  1  0  0  0  0
  1 40  1  0  0  0  0
  1 41  1  0  0  0  0
  2  3  1  0  0  0  0
  2 29  1  0  0  0  0
  2 42  1  6  0  0  0
  3  4  1  0  0  0  0
  4  5  1  0  0  0  0
  4 25  2  0  0  0  0
  5  6  2  0  0  0  0
  5 43  1  0  0  0  0
  6  7  1  0  0  0  0
  6 24  1  0  0  0  0
  7  8  1  0  0  0  0
  7 23  1  0  0  0  0
  8  9  2  0  0  0  0
  8 44  1  0  0  0  0
  9 10  1  0  0  0  0
 10 11  1  0  0  0  0
 10 23  2  0  0  0  0
 11 12  2  0  0  0  0
 11 45  1  0  0  0  0
 12 13  1  0  0  0  0
 12 46  1  0  0  0  0
 13 14  1  0  0  0  0
 13 22  2  0  0  0  0
 14 15  1  0  0  0  0
 15 16  1  0  0  0  0
 15 21  1  0  0  0  0
 15 47  1  0  0  0  0
 16 17  1  0  0  0  0
 16 48  1  0  0  0  0
 16 49  1  0  0  0  0
 17 18  1  0  0  0  0
 17 50  1  0  0  0  0
 17 51  1  0  0  0  0
 18 19  1  0  0  0  0
 18 20  1  0  0  0  0
 19 52  1  0  0  0  0
 19 53  1  0  0  0  0
 19 54  1  0  0  0  0
 20 21  1  0  0  0  0
 20 55  1  0  0  0  0
 20 56  1  0  0  0  0
 21 57  1  0  0  0  0
 21 58  1  0  0  0  0
 22 23  1  0  0  0  0
 22 59  1  0  0  0  0
 24 25  1  0  0  0  0
 25 26  1  0  0  0  0
 26 27  1  0  0  0  0
 26 28  2  0  0  0  0
 27 60  1  0  0  0  0
 27 61  1  0  0  0  0
 29 30  1  0  0  0  0
 29 34  2  0  0  0  0
 30 31  2  0  0  0  0
 30 62  1  0  0  0  0
 31 32  1  0  0  0  0
 31 63  1  0  0  0  0
 32 33  2  0  0  0  0
 32 64  1  0  0  0  0
 33 34  1  0  0  0  0
 33 65  1  0  0  0  0
 34 35  1  0  0  0  0
 35 36  1  0  0  0  0
 35 37  1  0  0  0  0
 35 38  1  0  0  0  0
M  END
$$$$
