CHEMBL2403375
 OpenBabel04072215363D

 50 53  0  0  0  0  0  0  0  0999 V2000
    1.2920    0.4499   -0.0501 C   0  0  0  0  0  0  0  0  0  0  0  0
    2.2812   -0.6753    0.1314 C   0  0  0  0  0  0  0  0  0  0  0  0
    2.2682   -1.3503    1.1631 O   0  0  0  0  0  0  0  0  0  0  0  0
    3.1703   -0.9193   -0.9107 N   0  0  0  0  0  0  0  0  0  0  0  0
    3.1622   -0.1102   -2.1499 C   0  0  0  0  0  0  0  0  0  0  0  0
    4.2010   -0.3621   -3.2540 C   0  0  0  0  0  0  0  0  0  0  0  0
    5.0069   -1.5595   -2.9830 C   0  0  0  0  0  0  0  0  0  0  0  0
    5.9901   -2.0252   -3.8021 N   0  0  0  0  0  0  0  0  0  0  0  0
    6.6593   -3.0583   -3.1880 C   0  0  0  0  0  0  0  0  0  0  0  0
    7.8127   -3.6470   -3.7756 C   0  0  0  0  0  0  0  0  0  0  0  0
    8.7078   -3.0308   -4.5706 C   0  0  0  0  0  0  0  0  0  0  0  0
    8.7166   -1.5964   -5.0726 C   0  0  0  0  0  0  0  0  0  0  0  0
    7.8619   -0.7373   -4.9709 O   0  0  0  0  0  0  0  0  0  0  0  0
    9.8945   -1.4554   -5.7733 N   0  0  0  0  0  0  0  0  0  0  0  0
   10.5990   -2.6474   -5.8271 C   0  0  0  0  0  0  0  0  0  0  0  0
   11.7730   -2.8538   -6.5109 C   0  0  0  0  0  0  0  0  0  0  0  0
   12.2828   -4.1480   -6.5077 C   0  0  0  0  0  0  0  0  0  0  0  0
   11.6176   -5.1906   -5.8329 C   0  0  0  0  0  0  0  0  0  0  0  0
   12.2040   -6.4138   -6.0078 O   0  0  0  0  0  0  0  0  0  0  0  0
   11.3873   -7.5882   -5.9247 C   0  0  0  0  0  0  0  0  0  0  0  0
   10.2739   -7.6042   -6.9748 C   0  0  0  0  0  0  0  0  0  0  0  0
   12.3248   -8.7674   -6.1888 C   0  0  0  0  0  0  0  0  0  0  0  0
   10.4562   -4.9392   -5.0875 C   0  0  0  0  0  0  0  0  0  0  0  0
    9.9338   -3.6536   -5.1137 C   0  0  0  0  0  0  0  0  0  0  0  0
    5.9732   -3.3247   -2.0118 C   0  0  0  0  0  0  0  0  0  0  0  0
    4.9649   -2.3319   -1.8543 C   0  0  0  0  0  0  0  0  0  0  0  0
    4.0650   -2.0721   -0.7082 C   0  0  0  0  0  0  0  0  0  0  0  0
    0.7496    0.6061    0.8875 H   0  0  0  0  0  0  0  0  0  0  0  0
    0.5699    0.1889   -0.8282 H   0  0  0  0  0  0  0  0  0  0  0  0
    1.7989    1.3857   -0.2951 H   0  0  0  0  0  0  0  0  0  0  0  0
    3.2532    0.9405   -1.8487 H   0  0  0  0  0  0  0  0  0  0  0  0
    2.1602   -0.2079   -2.5859 H   0  0  0  0  0  0  0  0  0  0  0  0
    4.8610    0.5109   -3.3369 H   0  0  0  0  0  0  0  0  0  0  0  0
    3.6910   -0.4551   -4.2207 H   0  0  0  0  0  0  0  0  0  0  0  0
    6.2886   -1.5615   -4.6532 H   0  0  0  0  0  0  0  0  0  0  0  0
    7.9990   -4.6777   -3.4871 H   0  0  0  0  0  0  0  0  0  0  0  0
   10.1456   -0.5998   -6.2430 H   0  0  0  0  0  0  0  0  0  0  0  0
   12.2678   -2.0579   -7.0568 H   0  0  0  0  0  0  0  0  0  0  0  0
   13.1928   -4.3681   -7.0632 H   0  0  0  0  0  0  0  0  0  0  0  0
   10.9816   -7.6916   -4.9117 H   0  0  0  0  0  0  0  0  0  0  0  0
   10.6869   -7.4942   -7.9835 H   0  0  0  0  0  0  0  0  0  0  0  0
    9.5664   -6.7818   -6.8380 H   0  0  0  0  0  0  0  0  0  0  0  0
    9.7062   -8.5385   -6.9263 H   0  0  0  0  0  0  0  0  0  0  0  0
   12.7639   -8.6971   -7.1918 H   0  0  0  0  0  0  0  0  0  0  0  0
   11.7977   -9.7225   -6.1077 H   0  0  0  0  0  0  0  0  0  0  0  0
   13.1618   -8.7647   -5.4827 H   0  0  0  0  0  0  0  0  0  0  0  0
    9.9584   -5.7237   -4.5313 H   0  0  0  0  0  0  0  0  0  0  0  0
    6.2278   -4.0957   -1.2958 H   0  0  0  0  0  0  0  0  0  0  0  0
    4.6641   -1.8655    0.1876 H   0  0  0  0  0  0  0  0  0  0  0  0
    3.4493   -2.9558   -0.5035 H   0  0  0  0  0  0  0  0  0  0  0  0
  1  2  1  0  0  0  0
  1 28  1  0  0  0  0
  1 29  1  0  0  0  0
  1 30  1  0  0  0  0
  2  3  2  0  0  0  0
  2  4  1  0  0  0  0
  4  5  1  0  0  0  0
  4 27  1  0  0  0  0
  5  6  1  0  0  0  0
  5 31  1  0  0  0  0
  5 32  1  0  0  0  0
  6  7  1  0  0  0  0
  6 33  1  0  0  0  0
  6 34  1  0  0  0  0
  7  8  1  0  0  0  0
  7 26  2  0  0  0  0
  8  9  1  0  0  0  0
  8 35  1  0  0  0  0
  9 10  1  0  0  0  0
  9 25  2  0  0  0  0
 10 11  2  0  0  0  0
 10 36  1  0  0  0  0
 11 12  1  0  0  0  0
 11 24  1  0  0  0  0
 12 13  2  0  0  0  0
 12 14  1  0  0  0  0
 14 15  1  0  0  0  0
 14 37  1  0  0  0  0
 15 16  1  0  0  0  0
 15 24  2  0  0  0  0
 16 17  2  0  0  0  0
 16 38  1  0  0  0  0
 17 18  1  0  0  0  0
 17 39  1  0  0  0  0
 18 19  1  0  0  0  0
 18 23  2  0  0  0  0
 19 20  1  0  0  0  0
 20 21  1  0  0  0  0
 20 22  1  0  0  0  0
 20 40  1  0  0  0  0
 21 41  1  0  0  0  0
 21 42  1  0  0  0  0
 21 43  1  0  0  0  0
 22 44  1  0  0  0  0
 22 45  1  0  0  0  0
 22 46  1  0  0  0  0
 23 24  1  0  0  0  0
 23 47  1  0  0  0  0
 25 26  1  0  0  0  0
 25 48  1  0  0  0  0
 26 27  1  0  0  0  0
 27 49  1  0  0  0  0
 27 50  1  0  0  0  0
M  END
$$$$
