CHEMBL2023485
 OpenBabel04072215363D

 60 63  0  0  0  0  0  0  0  0999 V2000
    5.4636   -3.0957   -2.1277 C   0  0  0  0  0  0  0  0  0  0  0  0
    6.4974   -2.3284   -1.3180 C   0  0  0  0  0  0  0  0  0  0  0  0
    6.0637   -2.1477    0.0910 C   0  0  0  0  0  0  0  0  0  0  0  0
    6.2351   -2.9191    1.2157 C   0  0  0  0  0  0  0  0  0  0  0  0
    5.5944   -2.2146    2.2649 C   0  0  0  0  0  0  0  0  0  0  0  0
    5.5587   -2.6683    3.5645 N   0  0  0  0  0  0  0  0  0  0  0  0
    4.9316   -2.0420    4.6234 C   0  0  0  0  0  0  0  0  0  0  0  0
    4.2916   -0.9929    4.5870 O   0  0  0  0  0  0  0  0  0  0  0  0
    5.1521   -2.7334    5.9692 C   0  0  0  0  0  0  0  0  0  0  0  0
    5.3179   -4.2387    5.9151 C   0  0  0  0  0  0  0  0  0  0  0  0
    6.6446   -4.7313    5.9222 C   0  0  0  0  0  0  0  0  0  0  0  0
    6.9386   -6.1033    5.8944 C   0  0  0  0  0  0  0  0  0  0  0  0
    5.9114   -7.0370    5.8044 C   0  0  0  0  0  0  0  0  0  0  0  0
    6.0205   -8.4104    5.8449 O   0  0  0  0  0  0  0  0  0  0  0  0
    7.0757   -9.1732    5.3700 C   0  0  0  0  0  0  0  0  0  0  0  0
    8.1564   -8.6895    4.6371 C   0  0  0  0  0  0  0  0  0  0  0  0
    9.1345   -9.5793    4.2317 C   0  0  0  0  0  0  0  0  0  0  0  0
    9.0846  -10.9016    4.4510 N   0  0  0  0  0  0  0  0  0  0  0  0
    8.0252  -11.3895    5.1009 C   0  0  0  0  0  0  0  0  0  0  0  0
    7.9833  -12.7647    5.2483 C   0  0  0  0  0  0  0  0  0  0  0  0
    6.9446  -13.4269    5.9063 C   0  0  0  0  0  0  0  0  0  0  0  0
    6.9168  -14.7942    6.0024 O   0  0  0  0  0  0  0  0  0  0  0  0
    8.1746  -15.4658    5.9944 C   0  0  0  0  0  0  0  0  0  0  0  0
    5.8882  -12.6641    6.4207 C   0  0  0  0  0  0  0  0  0  0  0  0
    4.7708  -13.1117    7.0804 O   0  0  0  0  0  0  0  0  0  0  0  0
    4.6037  -14.5136    7.2632 C   0  0  0  0  0  0  0  0  0  0  0  0
    5.9238  -11.2582    6.2749 C   0  0  0  0  0  0  0  0  0  0  0  0
    6.9831  -10.5859    5.6048 C   0  0  0  0  0  0  0  0  0  0  0  0
    4.5945   -6.5494    5.8246 C   0  0  0  0  0  0  0  0  0  0  0  0
    4.2765   -5.1727    5.8735 C   0  0  0  0  0  0  0  0  0  0  0  0
    2.9342   -4.9444    6.0035 O   0  0  0  0  0  0  0  0  0  0  0  0
    2.3349   -3.8121    5.3873 C   0  0  0  0  0  0  0  0  0  0  0  0
    5.0673   -1.0811    1.8186 N   0  0  0  0  0  0  0  0  0  0  0  0
    5.3534   -1.0580    0.5126 N   0  0  0  0  0  0  0  0  0  0  0  0
    5.8273   -3.2663   -3.1460 H   0  0  0  0  0  0  0  0  0  0  0  0
    4.5222   -2.5395   -2.1921 H   0  0  0  0  0  0  0  0  0  0  0  0
    5.2473   -4.0699   -1.6757 H   0  0  0  0  0  0  0  0  0  0  0  0
    6.6760   -1.3520   -1.7880 H   0  0  0  0  0  0  0  0  0  0  0  0
    7.4516   -2.8682   -1.3438 H   0  0  0  0  0  0  0  0  0  0  0  0
    6.7544   -3.8700    1.2705 H   0  0  0  0  0  0  0  0  0  0  0  0
    6.0080   -3.5576    3.7136 H   0  0  0  0  0  0  0  0  0  0  0  0
    4.3449   -2.4697    6.6579 H   0  0  0  0  0  0  0  0  0  0  0  0
    6.0469   -2.2737    6.4103 H   0  0  0  0  0  0  0  0  0  0  0  0
    7.4778   -4.0294    5.9835 H   0  0  0  0  0  0  0  0  0  0  0  0
    7.9778   -6.3951    5.9909 H   0  0  0  0  0  0  0  0  0  0  0  0
    8.2757   -7.6583    4.3447 H   0  0  0  0  0  0  0  0  0  0  0  0
   10.0144   -9.2471    3.6877 H   0  0  0  0  0  0  0  0  0  0  0  0
    8.7965  -13.3207    4.7922 H   0  0  0  0  0  0  0  0  0  0  0  0
    7.9942  -16.5211    6.2206 H   0  0  0  0  0  0  0  0  0  0  0  0
    8.8389  -15.0637    6.7669 H   0  0  0  0  0  0  0  0  0  0  0  0
    8.6454  -15.4265    5.0071 H   0  0  0  0  0  0  0  0  0  0  0  0
    3.6544  -14.6763    7.7834 H   0  0  0  0  0  0  0  0  0  0  0  0
    5.3920  -14.9283    7.9006 H   0  0  0  0  0  0  0  0  0  0  0  0
    4.5332  -15.0372    6.3037 H   0  0  0  0  0  0  0  0  0  0  0  0
    5.0963  -10.6776    6.6822 H   0  0  0  0  0  0  0  0  0  0  0  0
    3.7755   -7.2689    5.8359 H   0  0  0  0  0  0  0  0  0  0  0  0
    1.2540   -3.9888    5.3564 H   0  0  0  0  0  0  0  0  0  0  0  0
    2.6762   -3.6742    4.3580 H   0  0  0  0  0  0  0  0  0  0  0  0
    2.4686   -2.9105    5.9876 H   0  0  0  0  0  0  0  0  0  0  0  0
    5.0320   -0.2643   -0.0312 H   0  0  0  0  0  0  0  0  0  0  0  0
  1  2  1  0  0  0  0
  1 35  1  0  0  0  0
  1 36  1  0  0  0  0
  1 37  1  0  0  0  0
  2  3  1  0  0  0  0
  2 38  1  0  0  0  0
  2 39  1  0  0  0  0
  3  4  2  0  0  0  0
  3 34  1  0  0  0  0
  4  5  1  0  0  0  0
  4 40  1  0  0  0  0
  5  6  1  0  0  0  0
  5 33  2  0  0  0  0
  6  7  1  0  0  0  0
  6 41  1  0  0  0  0
  7  8  2  0  0  0  0
  7  9  1  0  0  0  0
  9 10  1  0  0  0  0
  9 42  1  0  0  0  0
  9 43  1  0  0  0  0
 10 11  1  0  0  0  0
 10 30  2  0  0  0  0
 11 12  2  0  0  0  0
 11 44  1  0  0  0  0
 12 13  1  0  0  0  0
 12 45  1  0  0  0  0
 13 14  1  0  0  0  0
 13 29  2  0  0  0  0
 14 15  1  0  0  0  0
 15 16  1  0  0  0  0
 15 28  2  0  0  0  0
 16 17  2  0  0  0  0
 16 46  1  0  0  0  0
 17 18  1  0  0  0  0
 17 47  1  0  0  0  0
 18 19  2  0  0  0  0
 19 20  1  0  0  0  0
 19 28  1  0  0  0  0
 20 21  2  0  0  0  0
 20 48  1  0  0  0  0
 21 22  1  0  0  0  0
 21 24  1  0  0  0  0
 22 23  1  0  0  0  0
 23 49  1  0  0  0  0
 23 50  1  0  0  0  0
 23 51  1  0  0  0  0
 24 25  1  0  0  0  0
 24 27  2  0  0  0  0
 25 26  1  0  0  0  0
 26 52  1  0  0  0  0
 26 53  1  0  0  0  0
 26 54  1  0  0  0  0
 27 28  1  0  0  0  0
 27 55  1  0  0  0  0
 29 30  1  0  0  0  0
 29 56  1  0  0  0  0
 30 31  1  0  0  0  0
 31 32  1  0  0  0  0
 32 57  1  0  0  0  0
 32 58  1  0  0  0  0
 32 59  1  0  0  0  0
 33 34  1  0  0  0  0
 34 60  1  0  0  0  0
M  END
$$$$
