CHEMBL3929914
 OpenBabel04072215373D

 55 59  0  0  0  0  0  0  0  0999 V2000
    1.9327    4.7311    2.1456 C   0  0  0  0  0  0  0  0  0  0  0  0
    2.4712    4.5709    0.8318 O   0  0  0  0  0  0  0  0  0  0  0  0
    3.2716    3.4650    0.6841 C   0  0  0  0  0  0  0  0  0  0  0  0
    2.9783    2.2333    1.2702 C   0  0  0  0  0  0  0  0  0  0  0  0
    3.8000    1.1423    1.0185 C   0  0  0  0  0  0  0  0  0  0  0  0
    3.5915   -0.1228    1.4997 O   0  0  0  0  0  0  0  0  0  0  0  0
    2.2293   -0.4734    1.7242 C   0  0  0  0  0  0  0  0  0  0  0  0
    4.9482    1.3039    0.2378 C   0  0  0  0  0  0  0  0  0  0  0  0
    5.2814    2.5315   -0.3628 C   0  0  0  0  0  0  0  0  0  0  0  0
    6.3769    2.6635   -1.2547 N   0  0  0  0  0  0  0  0  0  0  0  0
    6.7543    1.4100   -2.0063 C   0  0  0  0  0  0  0  0  0  0  0  0
    5.7348    0.6266   -2.8191 C   0  0  0  0  0  0  0  0  0  0  0  0
    4.8167    1.1190   -3.7292 C   0  0  0  0  0  0  0  0  0  0  0  0
    3.9614   -0.1707   -4.4730 S   0  0  0  0  0  0  0  0  0  0  0  0
    4.8645   -1.2982   -3.5446 C   0  0  0  0  0  0  0  0  0  0  0  0
    4.6221   -2.7634   -3.6856 C   0  0  0  0  0  0  0  0  0  0  0  0
    5.7627   -0.7682   -2.7410 N   0  0  0  0  0  0  0  0  0  0  0  0
    7.5289    3.5292   -1.1519 C   0  0  0  0  0  0  0  0  0  0  0  0
    8.0421    3.9608   -2.3789 C   0  0  0  0  0  0  0  0  0  0  0  0
    9.3637    4.3378   -2.4834 C   0  0  0  0  0  0  0  0  0  0  0  0
   10.1770    4.4424   -1.3919 C   0  0  0  0  0  0  0  0  0  0  0  0
   11.4627    4.6380   -1.6825 N   0  0  0  0  0  0  0  0  0  0  0  0
   12.2836    4.8906   -0.6625 C   0  0  0  0  0  0  0  0  0  0  0  0
   11.8279    5.0348    0.6363 C   0  0  0  0  0  0  0  0  0  0  0  0
   12.7647    5.6853    1.5525 C   0  0  0  0  0  0  0  0  0  0  0  0
   12.8418    7.0560    1.9234 C   0  0  0  0  0  0  0  0  0  0  0  0
   14.0164    7.3891    2.4747 N   0  0  0  0  0  0  0  0  0  0  0  0
   14.7268    6.2553    2.4127 N   0  0  0  0  0  0  0  0  0  0  0  0
   14.0527    5.2322    1.8038 C   0  0  0  0  0  0  0  0  0  0  0  0
   10.5238    4.7363    0.9641 N   0  0  0  0  0  0  0  0  0  0  0  0
    9.6559    4.3549   -0.0657 C   0  0  0  0  0  0  0  0  0  0  0  0
    8.3037    3.8321    0.0193 C   0  0  0  0  0  0  0  0  0  0  0  0
    4.3930    3.6012   -0.1533 C   0  0  0  0  0  0  0  0  0  0  0  0
    1.4579    5.7152    2.2007 H   0  0  0  0  0  0  0  0  0  0  0  0
    2.7267    4.6956    2.8997 H   0  0  0  0  0  0  0  0  0  0  0  0
    1.1577    3.9882    2.3632 H   0  0  0  0  0  0  0  0  0  0  0  0
    2.1095    2.1191    1.9047 H   0  0  0  0  0  0  0  0  0  0  0  0
    2.1803   -1.5587    1.8543 H   0  0  0  0  0  0  0  0  0  0  0  0
    1.5973   -0.2119    0.8676 H   0  0  0  0  0  0  0  0  0  0  0  0
    1.8560   -0.0101    2.6426 H   0  0  0  0  0  0  0  0  0  0  0  0
    5.5633    0.4215    0.0854 H   0  0  0  0  0  0  0  0  0  0  0  0
    7.2457    0.7243   -1.3028 H   0  0  0  0  0  0  0  0  0  0  0  0
    7.5330    1.6259   -2.7512 H   0  0  0  0  0  0  0  0  0  0  0  0
    4.6149    2.1449   -4.0008 H   0  0  0  0  0  0  0  0  0  0  0  0
    3.6047   -2.9834   -4.0255 H   0  0  0  0  0  0  0  0  0  0  0  0
    4.7636   -3.2634   -2.7217 H   0  0  0  0  0  0  0  0  0  0  0  0
    5.3254   -3.2020   -4.4011 H   0  0  0  0  0  0  0  0  0  0  0  0
    7.4473    3.8715   -3.2851 H   0  0  0  0  0  0  0  0  0  0  0  0
    9.7880    4.5135   -3.4688 H   0  0  0  0  0  0  0  0  0  0  0  0
   13.3220    5.0455   -0.9330 H   0  0  0  0  0  0  0  0  0  0  0  0
   12.1217    7.8461    1.7507 H   0  0  0  0  0  0  0  0  0  0  0  0
   15.6931    6.2727    2.7357 H   0  0  0  0  0  0  0  0  0  0  0  0
   14.5641    4.3125    1.5605 H   0  0  0  0  0  0  0  0  0  0  0  0
    7.8959    3.6051    0.9977 H   0  0  0  0  0  0  0  0  0  0  0  0
    4.5430    4.5426   -0.6769 H   0  0  0  0  0  0  0  0  0  0  0  0
  1  2  1  0  0  0  0
  1 34  1  0  0  0  0
  1 35  1  0  0  0  0
  1 36  1  0  0  0  0
  2  3  1  0  0  0  0
  3  4  1  0  0  0  0
  3 33  2  0  0  0  0
  4  5  2  0  0  0  0
  4 37  1  0  0  0  0
  5  6  1  0  0  0  0
  5  8  1  0  0  0  0
  6  7  1  0  0  0  0
  7 38  1  0  0  0  0
  7 39  1  0  0  0  0
  7 40  1  0  0  0  0
  8  9  2  0  0  0  0
  8 41  1  0  0  0  0
  9 10  1  0  0  0  0
  9 33  1  0  0  0  0
 10 11  1  0  0  0  0
 10 18  1  0  0  0  0
 11 12  1  0  0  0  0
 11 42  1  0  0  0  0
 11 43  1  0  0  0  0
 12 13  2  0  0  0  0
 12 17  1  0  0  0  0
 13 14  1  0  0  0  0
 13 44  1  0  0  0  0
 14 15  1  0  0  0  0
 15 16  1  0  0  0  0
 15 17  2  0  0  0  0
 16 45  1  0  0  0  0
 16 46  1  0  0  0  0
 16 47  1  0  0  0  0
 18 19  1  0  0  0  0
 18 32  2  0  0  0  0
 19 20  2  0  0  0  0
 19 48  1  0  0  0  0
 20 21  1  0  0  0  0
 20 49  1  0  0  0  0
 21 22  1  0  0  0  0
 21 31  2  0  0  0  0
 22 23  2  0  0  0  0
 23 24  1  0  0  0  0
 23 50  1  0  0  0  0
 24 25  1  0  0  0  0
 24 30  2  0  0  0  0
 25 26  1  0  0  0  0
 25 29  2  0  0  0  0
 26 27  2  0  0  0  0
 26 51  1  0  0  0  0
 27 28  1  0  0  0  0
 28 29  1  0  0  0  0
 28 52  1  0  0  0  0
 29 53  1  0  0  0  0
 30 31  1  0  0  0  0
 31 32  1  0  0  0  0
 32 54  1  0  0  0  0
 33 55  1  0  0  0  0
M  END
$$$$
