CHEMBL3918751
 OpenBabel04072215373D

 57 60  0  0  0  0  0  0  0  0999 V2000
    7.9661    5.0570    3.5945 C   0  0  0  0  0  0  0  0  0  0  0  0
    8.0622    3.7184    3.0891 O   0  0  0  0  0  0  0  0  0  0  0  0
    7.4554    2.7246    3.8081 C   0  0  0  0  0  0  0  0  0  0  0  0
    6.8109    2.9151    5.0301 C   0  0  0  0  0  0  0  0  0  0  0  0
    6.1781    1.8431    5.6523 C   0  0  0  0  0  0  0  0  0  0  0  0
    5.4798    1.8970    6.8295 O   0  0  0  0  0  0  0  0  0  0  0  0
    5.4921    3.1315    7.5350 C   0  0  0  0  0  0  0  0  0  0  0  0
    6.2034    0.5747    5.0572 C   0  0  0  0  0  0  0  0  0  0  0  0
    6.8608    0.3285    3.8432 C   0  0  0  0  0  0  0  0  0  0  0  0
    6.7669   -0.9177    3.1739 N   0  0  0  0  0  0  0  0  0  0  0  0
    5.4444   -1.6527    3.3126 C   0  0  0  0  0  0  0  0  0  0  0  0
    4.1683   -0.8895    2.9055 C   0  0  0  0  0  0  0  0  0  0  0  0
    4.0938   -0.6687    1.4978 O   0  0  0  0  0  0  0  0  0  0  0  0
    7.7954   -1.9085    2.9239 C   0  0  0  0  0  0  0  0  0  0  0  0
    7.6285   -2.6022    1.7262 C   0  0  0  0  0  0  0  0  0  0  0  0
    8.1250   -3.8850    1.6005 C   0  0  0  0  0  0  0  0  0  0  0  0
    8.9469   -4.4414    2.5507 C   0  0  0  0  0  0  0  0  0  0  0  0
    9.1738   -5.7449    2.3564 N   0  0  0  0  0  0  0  0  0  0  0  0
   10.1401   -6.2986    3.0945 C   0  0  0  0  0  0  0  0  0  0  0  0
   10.9194   -5.5601    3.9587 C   0  0  0  0  0  0  0  0  0  0  0  0
   12.2425   -6.1334    4.2067 C   0  0  0  0  0  0  0  0  0  0  0  0
   12.8996   -6.7133    5.3147 C   0  0  0  0  0  0  0  0  0  0  0  0
   14.0973   -7.2475    5.0065 N   0  0  0  0  0  0  0  0  0  0  0  0
   14.2199   -7.0251    3.6831 N   0  0  0  0  0  0  0  0  0  0  0  0
   15.5023   -7.1162    3.0006 C   0  0  0  0  0  0  0  0  0  0  0  0
   16.3725   -8.3389    3.2788 C   0  0  0  0  0  0  0  0  0  0  0  0
   15.8403   -9.5200    2.6872 O   0  0  0  0  0  0  0  0  0  0  0  0
   13.0859   -6.4724    3.1500 C   0  0  0  0  0  0  0  0  0  0  0  0
   10.5681   -4.2661    4.2910 N   0  0  0  0  0  0  0  0  0  0  0  0
    9.4919   -3.6735    3.6035 C   0  0  0  0  0  0  0  0  0  0  0  0
    8.8025   -2.3906    3.8121 C   0  0  0  0  0  0  0  0  0  0  0  0
    7.4891    1.4339    3.2321 C   0  0  0  0  0  0  0  0  0  0  0  0
    8.3815    5.7472    2.8529 H   0  0  0  0  0  0  0  0  0  0  0  0
    8.5599    5.1559    4.5111 H   0  0  0  0  0  0  0  0  0  0  0  0
    6.9277    5.3640    3.7724 H   0  0  0  0  0  0  0  0  0  0  0  0
    6.7885    3.8951    5.4882 H   0  0  0  0  0  0  0  0  0  0  0  0
    4.9425    2.9863    8.4697 H   0  0  0  0  0  0  0  0  0  0  0  0
    4.9810    3.9155    6.9662 H   0  0  0  0  0  0  0  0  0  0  0  0
    6.5137    3.4304    7.7918 H   0  0  0  0  0  0  0  0  0  0  0  0
    5.6757   -0.2247    5.5676 H   0  0  0  0  0  0  0  0  0  0  0  0
    5.3451   -2.0223    4.3376 H   0  0  0  0  0  0  0  0  0  0  0  0
    5.4288   -2.5444    2.6736 H   0  0  0  0  0  0  0  0  0  0  0  0
    4.0258    0.0555    3.4345 H   0  0  0  0  0  0  0  0  0  0  0  0
    3.3082   -1.5254    3.1542 H   0  0  0  0  0  0  0  0  0  0  0  0
    3.9963    0.2906    1.3656 H   0  0  0  0  0  0  0  0  0  0  0  0
    6.9622   -2.2184    0.9567 H   0  0  0  0  0  0  0  0  0  0  0  0
    7.8237   -4.4731    0.7360 H   0  0  0  0  0  0  0  0  0  0  0  0
   10.3280   -7.3440    2.8873 H   0  0  0  0  0  0  0  0  0  0  0  0
   12.5508   -6.8020    6.3342 H   0  0  0  0  0  0  0  0  0  0  0  0
   16.0475   -6.2134    3.2978 H   0  0  0  0  0  0  0  0  0  0  0  0
   15.2984   -7.0546    1.9243 H   0  0  0  0  0  0  0  0  0  0  0  0
   16.5517   -8.5099    4.3439 H   0  0  0  0  0  0  0  0  0  0  0  0
   17.3516   -8.1765    2.8085 H   0  0  0  0  0  0  0  0  0  0  0  0
   15.2380   -9.9118    3.3447 H   0  0  0  0  0  0  0  0  0  0  0  0
   12.9863   -6.3378    2.0785 H   0  0  0  0  0  0  0  0  0  0  0  0
    9.0378   -1.8329    4.7161 H   0  0  0  0  0  0  0  0  0  0  0  0
    7.9571    1.3120    2.2553 H   0  0  0  0  0  0  0  0  0  0  0  0
  1  2  1  0  0  0  0
  1 33  1  0  0  0  0
  1 34  1  0  0  0  0
  1 35  1  0  0  0  0
  2  3  1  0  0  0  0
  3  4  1  0  0  0  0
  3 32  2  0  0  0  0
  4  5  2  0  0  0  0
  4 36  1  0  0  0  0
  5  6  1  0  0  0  0
  5  8  1  0  0  0  0
  6  7  1  0  0  0  0
  7 37  1  0  0  0  0
  7 38  1  0  0  0  0
  7 39  1  0  0  0  0
  8  9  2  0  0  0  0
  8 40  1  0  0  0  0
  9 10  1  0  0  0  0
  9 32  1  0  0  0  0
 10 11  1  0  0  0  0
 10 14  1  0  0  0  0
 11 12  1  0  0  0  0
 11 41  1  0  0  0  0
 11 42  1  0  0  0  0
 12 13  1  0  0  0  0
 12 43  1  0  0  0  0
 12 44  1  0  0  0  0
 13 45  1  0  0  0  0
 14 15  1  0  0  0  0
 14 31  2  0  0  0  0
 15 16  2  0  0  0  0
 15 46  1  0  0  0  0
 16 17  1  0  0  0  0
 16 47  1  0  0  0  0
 17 18  1  0  0  0  0
 17 30  2  0  0  0  0
 18 19  2  0  0  0  0
 19 20  1  0  0  0  0
 19 48  1  0  0  0  0
 20 21  1  0  0  0  0
 20 29  2  0  0  0  0
 21 22  1  0  0  0  0
 21 28  2  0  0  0  0
 22 23  2  0  0  0  0
 22 49  1  0  0  0  0
 23 24  1  0  0  0  0
 24 25  1  0  0  0  0
 24 28  1  0  0  0  0
 25 26  1  0  0  0  0
 25 50  1  0  0  0  0
 25 51  1  0  0  0  0
 26 27  1  0  0  0  0
 26 52  1  0  0  0  0
 26 53  1  0  0  0  0
 27 54  1  0  0  0  0
 28 55  1  0  0  0  0
 29 30  1  0  0  0  0
 30 31  1  0  0  0  0
 31 56  1  0  0  0  0
 32 57  1  0  0  0  0
M  END
$$$$
