CHEMBL4465918
 OpenBabel04072215383D

 67 72  0  0  1  0  0  0  0  0999 V2000
    4.4983   -2.5572    0.3189 O   0  0  0  0  0  0  0  0  0  0  0  0
    4.1586   -1.3776    0.2092 C   0  0  0  0  0  0  0  0  0  0  0  0
    3.2002   -0.7216    1.2197 C   0  0  0  0  0  0  0  0  0  0  0  0
    2.3816   -1.5287    2.2352 C   0  0  0  0  0  0  0  0  0  0  0  0
    3.1670   -2.2667    3.3216 C   0  0  0  0  0  0  0  0  0  0  0  0
    2.3438   -2.8589    4.4850 C   0  0  0  0  0  0  0  0  0  0  0  0
    2.3568   -2.2967    5.5855 O   0  0  0  0  0  0  0  0  0  0  0  0
    1.6113   -4.0223    4.2976 N   0  0  0  0  0  0  0  0  0  0  0  0
    0.7369   -4.6052    5.3474 C   0  0  0  0  0  0  0  0  0  0  0  0
   -0.6978   -4.2925    4.8642 C   0  0  1  0  0  0  0  0  0  0  0  0
   -1.0223   -2.9159    5.4758 C   0  0  0  0  0  0  0  0  0  0  0  0
   -2.5938   -2.2632    4.9955 Cl  0  0  0  0  0  0  0  0  0  0  0  0
   -0.4356   -4.4954    3.3698 C   0  0  0  0  0  0  0  0  0  0  0  0
    0.9349   -4.3086    3.1115 C   0  0  0  0  0  0  0  0  0  0  0  0
    1.5381   -4.6174    1.9086 C   0  0  0  0  0  0  0  0  0  0  0  0
    0.7490   -5.1383    0.9058 C   0  0  0  0  0  0  0  0  0  0  0  0
    1.3412   -5.4499   -0.2923 O   0  0  0  0  0  0  0  0  0  0  0  0
   -0.6135   -5.4129    1.1270 C   0  0  0  0  0  0  0  0  0  0  0  0
   -1.3411   -6.0973    0.1482 C   0  0  0  0  0  0  0  0  0  0  0  0
   -2.6596   -6.4729    0.3674 C   0  0  0  0  0  0  0  0  0  0  0  0
   -3.2882   -6.1212    1.5549 C   0  0  0  0  0  0  0  0  0  0  0  0
   -2.5931   -5.4147    2.5446 C   0  0  0  0  0  0  0  0  0  0  0  0
   -1.2350   -5.0739    2.3689 C   0  0  0  0  0  0  0  0  0  0  0  0
    4.6218   -0.5498   -0.8265 N   0  0  0  0  0  0  0  0  0  0  0  0
    5.4996   -0.9589   -1.9512 C   0  0  0  0  0  0  0  0  0  0  0  0
    4.5930   -0.8414   -3.2047 C   0  0  1  0  0  0  0  0  0  0  0  0
    3.9255   -2.2272   -3.2995 C   0  0  0  0  0  0  0  0  0  0  0  0
    2.7365   -2.3765   -4.5956 Cl  0  0  0  0  0  0  0  0  0  0  0  0
    3.8417    0.4215   -2.7719 C   0  0  0  0  0  0  0  0  0  0  0  0
    3.8843    0.5196   -1.3720 C   0  0  0  0  0  0  0  0  0  0  0  0
    3.4781    1.6426   -0.6654 C   0  0  0  0  0  0  0  0  0  0  0  0
    3.0435    2.7484   -1.3921 C   0  0  0  0  0  0  0  0  0  0  0  0
    2.7057    3.8707   -0.6975 O   0  0  0  0  0  0  0  0  0  0  0  0
    3.0549    2.7267   -2.7953 C   0  0  0  0  0  0  0  0  0  0  0  0
    2.7842    3.9169   -3.4902 C   0  0  0  0  0  0  0  0  0  0  0  0
    2.9128    3.9868   -4.8705 C   0  0  0  0  0  0  0  0  0  0  0  0
    3.2461    2.8433   -5.5874 C   0  0  0  0  0  0  0  0  0  0  0  0
    3.4812    1.6299   -4.9250 C   0  0  0  0  0  0  0  0  0  0  0  0
    3.4338    1.5502   -3.5170 C   0  0  0  0  0  0  0  0  0  0  0  0
    2.4294   -0.2173    0.6342 H   0  0  0  0  0  0  0  0  0  0  0  0
    3.7934    0.0195    1.7682 H   0  0  0  0  0  0  0  0  0  0  0  0
    1.7102   -2.1825    1.6794 H   0  0  0  0  0  0  0  0  0  0  0  0
    1.7155   -0.8131    2.7385 H   0  0  0  0  0  0  0  0  0  0  0  0
    3.8582   -1.5497    3.7846 H   0  0  0  0  0  0  0  0  0  0  0  0
    3.7953   -3.0562    2.9023 H   0  0  0  0  0  0  0  0  0  0  0  0
    0.9770   -4.2579    6.3541 H   0  0  0  0  0  0  0  0  0  0  0  0
    0.8915   -5.6962    5.3203 H   0  0  0  0  0  0  0  0  0  0  0  0
   -1.4084   -5.0377    5.2405 H   0  0  0  0  0  0  0  0  0  0  0  0
   -0.2662   -2.1546    5.2630 H   0  0  0  0  0  0  0  0  0  0  0  0
   -1.0510   -3.0222    6.5712 H   0  0  0  0  0  0  0  0  0  0  0  0
    2.6054   -4.5238    1.7730 H   0  0  0  0  0  0  0  0  0  0  0  0
    2.2600   -5.1301   -0.2841 H   0  0  0  0  0  0  0  0  0  0  0  0
   -0.8597   -6.3801   -0.7863 H   0  0  0  0  0  0  0  0  0  0  0  0
   -3.1811   -7.0513   -0.3909 H   0  0  0  0  0  0  0  0  0  0  0  0
   -4.3213   -6.4166    1.7196 H   0  0  0  0  0  0  0  0  0  0  0  0
   -3.1186   -5.1613    3.4603 H   0  0  0  0  0  0  0  0  0  0  0  0
    5.9755   -1.9308   -1.8031 H   0  0  0  0  0  0  0  0  0  0  0  0
    6.2943   -0.1993   -2.0302 H   0  0  0  0  0  0  0  0  0  0  0  0
    5.1815   -0.6520   -4.1095 H   0  0  0  0  0  0  0  0  0  0  0  0
    3.4522   -2.5424   -2.3635 H   0  0  0  0  0  0  0  0  0  0  0  0
    4.7099   -2.9712   -3.5094 H   0  0  0  0  0  0  0  0  0  0  0  0
    3.6427    1.7232    0.3943 H   0  0  0  0  0  0  0  0  0  0  0  0
    2.7724    3.7068    0.2582 H   0  0  0  0  0  0  0  0  0  0  0  0
    2.5329    4.8251   -2.9407 H   0  0  0  0  0  0  0  0  0  0  0  0
    2.7690    4.9386   -5.3753 H   0  0  0  0  0  0  0  0  0  0  0  0
    3.3487    2.9047   -6.6682 H   0  0  0  0  0  0  0  0  0  0  0  0
    3.7394    0.7598   -5.5238 H   0  0  0  0  0  0  0  0  0  0  0  0
  1  2  2  0  0  0  0
  2  3  1  0  0  0  0
  2 24  1  0  0  0  0
  3  4  1  0  0  0  0
  3 40  1  0  0  0  0
  3 41  1  0  0  0  0
  4  5  1  0  0  0  0
  4 42  1  0  0  0  0
  4 43  1  0  0  0  0
  5  6  1  0  0  0  0
  5 44  1  0  0  0  0
  5 45  1  0  0  0  0
  6  7  2  0  0  0  0
  6  8  1  0  0  0  0
  8  9  1  0  0  0  0
  8 14  1  0  0  0  0
  9 10  1  0  0  0  0
  9 46  1  0  0  0  0
  9 47  1  0  0  0  0
 10 11  1  0  0  0  0
 10 13  1  0  0  0  0
 10 48  1  1  0  0  0
 11 12  1  0  0  0  0
 11 49  1  0  0  0  0
 11 50  1  0  0  0  0
 13 14  1  0  0  0  0
 13 23  2  0  0  0  0
 14 15  2  0  0  0  0
 15 16  1  0  0  0  0
 15 51  1  0  0  0  0
 16 17  1  0  0  0  0
 16 18  2  0  0  0  0
 17 52  1  0  0  0  0
 18 19  1  0  0  0  0
 18 23  1  0  0  0  0
 19 20  2  0  0  0  0
 19 53  1  0  0  0  0
 20 21  1  0  0  0  0
 20 54  1  0  0  0  0
 21 22  2  0  0  0  0
 21 55  1  0  0  0  0
 22 23  1  0  0  0  0
 22 56  1  0  0  0  0
 24 25  1  0  0  0  0
 24 30  1  0  0  0  0
 25 26  1  0  0  0  0
 25 57  1  0  0  0  0
 25 58  1  0  0  0  0
 26 27  1  0  0  0  0
 26 29  1  0  0  0  0
 26 59  1  6  0  0  0
 27 28  1  0  0  0  0
 27 60  1  0  0  0  0
 27 61  1  0  0  0  0
 29 30  1  0  0  0  0
 29 39  2  0  0  0  0
 30 31  2  0  0  0  0
 31 32  1  0  0  0  0
 31 62  1  0  0  0  0
 32 33  1  0  0  0  0
 32 34  2  0  0  0  0
 33 63  1  0  0  0  0
 34 35  1  0  0  0  0
 34 39  1  0  0  0  0
 35 36  2  0  0  0  0
 35 64  1  0  0  0  0
 36 37  1  0  0  0  0
 36 65  1  0  0  0  0
 37 38  2  0  0  0  0
 37 66  1  0  0  0  0
 38 39  1  0  0  0  0
 38 67  1  0  0  0  0
M  END
$$$$
