CHEMBL3706826
 OpenBabel04072215373D

 64 67  0  0  0  0  0  0  0  0999 V2000
    3.3235    0.4963   -0.9878 C   0  0  0  0  0  0  0  0  0  0  0  0
    2.8150   -0.6371   -0.2658 O   0  0  0  0  0  0  0  0  0  0  0  0
    3.4008   -1.0109    0.9168 C   0  0  0  0  0  0  0  0  0  0  0  0
    4.4752   -0.2959    1.4487 C   0  0  0  0  0  0  0  0  0  0  0  0
    5.1489   -0.6805    2.6146 C   0  0  0  0  0  0  0  0  0  0  0  0
    6.2583    0.0019    3.1115 C   0  0  0  0  0  0  0  0  0  0  0  0
    6.7231    1.1639    2.4350 N   0  0  0  0  0  0  0  0  0  0  0  0
    7.9595    1.7693    2.6251 C   0  0  0  0  0  0  0  0  0  0  0  0
    9.0499    1.1734    3.0884 C   0  0  0  0  0  0  0  0  0  0  0  0
   10.2758    1.8818    3.4354 C   0  0  0  0  0  0  0  0  0  0  0  0
   11.1265    1.3046    4.1100 O   0  0  0  0  0  0  0  0  0  0  0  0
   10.4303    3.2838    2.9461 C   0  0  0  0  0  0  0  0  0  0  0  0
   11.6228    3.9842    3.0567 O   0  0  0  0  0  0  0  0  0  0  0  0
   12.8703    3.2532    3.0919 C   0  0  0  0  0  0  0  0  0  0  0  0
   13.1144    2.4348    1.8244 C   0  0  0  0  0  0  0  0  0  0  0  0
   13.1335    3.2685    0.7463 F   0  0  0  0  0  0  0  0  0  0  0  0
   13.9980    4.2698    3.2456 C   0  0  0  0  0  0  0  0  0  0  0  0
   15.1926    3.6213    3.3046 F   0  0  0  0  0  0  0  0  0  0  0  0
    9.3653    3.8946    2.3966 C   0  0  0  0  0  0  0  0  0  0  0  0
    8.0493    3.2273    2.2459 C   0  0  0  0  0  0  0  0  0  0  0  0
    7.0782    3.8302    1.7988 O   0  0  0  0  0  0  0  0  0  0  0  0
    6.9391   -0.4838    4.1618 N   0  0  0  0  0  0  0  0  0  0  0  0
    6.4990   -1.6118    4.7176 C   0  0  0  0  0  0  0  0  0  0  0  0
    5.4079   -2.2872    4.3546 N   0  0  0  0  0  0  0  0  0  0  0  0
    4.7403   -1.8155    3.3009 C   0  0  0  0  0  0  0  0  0  0  0  0
    3.6335   -2.4915    2.8256 C   0  0  0  0  0  0  0  0  0  0  0  0
    2.9698   -2.1580    1.6204 C   0  0  0  0  0  0  0  0  0  0  0  0
    1.9621   -2.9830    1.1068 O   0  0  0  0  0  0  0  0  0  0  0  0
    2.0185   -4.3160    1.6658 C   0  0  0  0  0  0  0  0  0  0  0  0
    1.2464   -5.4365    0.9464 C   0  0  0  0  0  0  0  0  0  0  0  0
   -0.2733   -5.2862    0.9657 C   0  0  0  0  0  0  0  0  0  0  0  0
   -0.8573   -5.4035    2.3767 C   0  0  0  0  0  0  0  0  0  0  0  0
   -0.4446   -6.6179    3.0938 N   0  0  0  0  0  0  0  0  0  0  0  0
   -0.8817   -6.5396    4.4958 C   0  0  0  0  0  0  0  0  0  0  0  0
    0.9902   -6.9133    3.0308 C   0  0  0  0  0  0  0  0  0  0  0  0
    1.5764   -6.7900    1.6163 C   0  0  0  0  0  0  0  0  0  0  0  0
    3.5075    0.1988   -2.0212 H   0  0  0  0  0  0  0  0  0  0  0  0
    4.2761    0.9309   -0.6648 H   0  0  0  0  0  0  0  0  0  0  0  0
    2.5908    1.3079   -0.9650 H   0  0  0  0  0  0  0  0  0  0  0  0
    4.8924    0.5600    0.9494 H   0  0  0  0  0  0  0  0  0  0  0  0
    5.9851    1.8443    2.2581 H   0  0  0  0  0  0  0  0  0  0  0  0
    9.0692    0.1121    3.3260 H   0  0  0  0  0  0  0  0  0  0  0  0
   12.9186    2.6110    3.9754 H   0  0  0  0  0  0  0  0  0  0  0  0
   12.3285    1.6992    1.6408 H   0  0  0  0  0  0  0  0  0  0  0  0
   14.0730    1.9079    1.8625 H   0  0  0  0  0  0  0  0  0  0  0  0
   13.8818    4.8449    4.1695 H   0  0  0  0  0  0  0  0  0  0  0  0
   14.0248    4.9805    2.4139 H   0  0  0  0  0  0  0  0  0  0  0  0
    9.4318    4.9131    2.0379 H   0  0  0  0  0  0  0  0  0  0  0  0
    7.0963   -2.0280    5.5233 H   0  0  0  0  0  0  0  0  0  0  0  0
    3.3380   -3.3470    3.4271 H   0  0  0  0  0  0  0  0  0  0  0  0
    1.6731   -4.2680    2.7042 H   0  0  0  0  0  0  0  0  0  0  0  0
    3.0674   -4.6389    1.6355 H   0  0  0  0  0  0  0  0  0  0  0  0
    1.5797   -5.4604   -0.0980 H   0  0  0  0  0  0  0  0  0  0  0  0
   -0.7093   -6.0782    0.3397 H   0  0  0  0  0  0  0  0  0  0  0  0
   -0.5703   -4.3337    0.5155 H   0  0  0  0  0  0  0  0  0  0  0  0
   -1.9510   -5.4200    2.2818 H   0  0  0  0  0  0  0  0  0  0  0  0
   -0.6038   -4.5003    2.9442 H   0  0  0  0  0  0  0  0  0  0  0  0
   -1.9707   -6.4369    4.5579 H   0  0  0  0  0  0  0  0  0  0  0  0
   -0.4273   -5.6873    5.0147 H   0  0  0  0  0  0  0  0  0  0  0  0
   -0.6135   -7.4484    5.0463 H   0  0  0  0  0  0  0  0  0  0  0  0
    1.1460   -7.9459    3.3698 H   0  0  0  0  0  0  0  0  0  0  0  0
    1.5590   -6.2771    3.7210 H   0  0  0  0  0  0  0  0  0  0  0  0
    1.1877   -7.6074    0.9963 H   0  0  0  0  0  0  0  0  0  0  0  0
    2.6633   -6.9343    1.6693 H   0  0  0  0  0  0  0  0  0  0  0  0
  1  2  1  0  0  0  0
  1 37  1  0  0  0  0
  1 38  1  0  0  0  0
  1 39  1  0  0  0  0
  2  3  1  0  0  0  0
  3  4  1  0  0  0  0
  3 27  2  0  0  0  0
  4  5  2  0  0  0  0
  4 40  1  0  0  0  0
  5  6  1  0  0  0  0
  5 25  1  0  0  0  0
  6  7  1  0  0  0  0
  6 22  2  0  0  0  0
  7  8  1  0  0  0  0
  7 41  1  0  0  0  0
  8  9  2  0  0  0  0
  8 20  1  0  0  0  0
  9 10  1  0  0  0  0
  9 42  1  0  0  0  0
 10 11  2  0  0  0  0
 10 12  1  0  0  0  0
 12 13  1  0  0  0  0
 12 19  2  0  0  0  0
 13 14  1  0  0  0  0
 14 15  1  0  0  0  0
 14 17  1  0  0  0  0
 14 43  1  0  0  0  0
 15 16  1  0  0  0  0
 15 44  1  0  0  0  0
 15 45  1  0  0  0  0
 17 18  1  0  0  0  0
 17 46  1  0  0  0  0
 17 47  1  0  0  0  0
 19 20  1  0  0  0  0
 19 48  1  0  0  0  0
 20 21  2  0  0  0  0
 22 23  1  0  0  0  0
 23 24  2  0  0  0  0
 23 49  1  0  0  0  0
 24 25  1  0  0  0  0
 25 26  2  0  0  0  0
 26 27  1  0  0  0  0
 26 50  1  0  0  0  0
 27 28  1  0  0  0  0
 28 29  1  0  0  0  0
 29 30  1  0  0  0  0
 29 51  1  0  0  0  0
 29 52  1  0  0  0  0
 30 31  1  0  0  0  0
 30 36  1  0  0  0  0
 30 53  1  0  0  0  0
 31 32  1  0  0  0  0
 31 54  1  0  0  0  0
 31 55  1  0  0  0  0
 32 33  1  0  0  0  0
 32 56  1  0  0  0  0
 32 57  1  0  0  0  0
 33 34  1  0  0  0  0
 33 35  1  0  0  0  0
 34 58  1  0  0  0  0
 34 59  1  0  0  0  0
 34 60  1  0  0  0  0
 35 36  1  0  0  0  0
 35 61  1  0  0  0  0
 35 62  1  0  0  0  0
 36 63  1  0  0  0  0
 36 64  1  0  0  0  0
M  END
$$$$
