CHEMBL3971161
 OpenBabel04072215373D

 51 54  0  0  0  0  0  0  0  0999 V2000
    1.2019   -0.3639   -0.4415 O   0  0  0  0  0  0  0  0  0  0  0  0
    2.2969    0.0178   -0.0480 C   0  0  0  0  0  0  0  0  0  0  0  0
    2.8600   -0.3477    1.1720 N   0  0  0  0  0  0  0  0  0  0  0  0
    2.2355   -1.1926    2.1363 C   0  0  0  0  0  0  0  0  0  0  0  0
    1.1240   -1.9856    1.8293 C   0  0  0  0  0  0  0  0  0  0  0  0
    0.4544   -2.7053    2.8170 C   0  0  0  0  0  0  0  0  0  0  0  0
    0.9090   -2.6686    4.1273 C   0  0  0  0  0  0  0  0  0  0  0  0
    2.0814   -1.9763    4.4452 C   0  0  0  0  0  0  0  0  0  0  0  0
    2.5907   -1.9388    5.7343 O   0  0  0  0  0  0  0  0  0  0  0  0
    2.5249   -3.1115    6.4933 C   0  0  0  0  0  0  0  0  0  0  0  0
    2.5373   -2.9906    7.8715 C   0  0  0  0  0  0  0  0  0  0  0  0
    2.4793   -4.1764    8.5823 C   0  0  0  0  0  0  0  0  0  0  0  0
    2.5482   -4.1459    9.9874 N   0  0  0  0  0  0  0  0  0  0  0  0
    2.6065   -5.2836   10.7768 C   0  0  0  0  0  0  0  0  0  0  0  0
    2.5833   -6.4435   10.3906 O   0  0  0  0  0  0  0  0  0  0  0  0
    2.7388   -5.0873   12.2493 C   0  0  0  0  0  0  0  0  0  0  0  0
    2.6399   -3.7921   13.0115 C   0  0  0  0  0  0  0  0  0  0  0  0
    3.9839   -4.4293   12.8047 C   0  0  0  0  0  0  0  0  0  0  0  0
    2.3754   -5.3578    7.9636 N   0  0  0  0  0  0  0  0  0  0  0  0
    2.3870   -5.3684    6.6325 C   0  0  0  0  0  0  0  0  0  0  0  0
    2.4893   -4.2943    5.8533 N   0  0  0  0  0  0  0  0  0  0  0  0
    2.7324   -1.2204    3.4525 C   0  0  0  0  0  0  0  0  0  0  0  0
    3.1022    0.9005   -0.7598 N   0  0  0  0  0  0  0  0  0  0  0  0
    2.7669    1.5259   -1.9918 C   0  0  0  0  0  0  0  0  0  0  0  0
    1.5522    1.3417   -2.6533 C   0  0  0  0  0  0  0  0  0  0  0  0
    1.2893    1.9768   -3.8702 C   0  0  0  0  0  0  0  0  0  0  0  0
    2.2281    2.8320   -4.4462 C   0  0  0  0  0  0  0  0  0  0  0  0
    1.7941    3.5370   -5.9586 Cl  0  0  0  0  0  0  0  0  0  0  0  0
    3.4413    3.0706   -3.7964 C   0  0  0  0  0  0  0  0  0  0  0  0
    4.4916    4.0281   -4.2945 C   0  0  0  0  0  0  0  0  0  0  0  0
    4.2315    4.6745   -5.4586 F   0  0  0  0  0  0  0  0  0  0  0  0
    4.7369    5.0138   -3.3814 F   0  0  0  0  0  0  0  0  0  0  0  0
    5.6930    3.4079   -4.4818 F   0  0  0  0  0  0  0  0  0  0  0  0
    3.7006    2.3931   -2.5731 C   0  0  0  0  0  0  0  0  0  0  0  0
    3.6683    0.1649    1.4859 H   0  0  0  0  0  0  0  0  0  0  0  0
    0.7356   -2.0684    0.8198 H   0  0  0  0  0  0  0  0  0  0  0  0
   -0.4231   -3.2903    2.5564 H   0  0  0  0  0  0  0  0  0  0  0  0
    0.3550   -3.2165    4.8838 H   0  0  0  0  0  0  0  0  0  0  0  0
    2.5964   -2.0214    8.3449 H   0  0  0  0  0  0  0  0  0  0  0  0
    2.6222   -3.2481   10.4396 H   0  0  0  0  0  0  0  0  0  0  0  0
    2.3910   -5.9629   12.7944 H   0  0  0  0  0  0  0  0  0  0  0  0
    2.2127   -3.8405   14.0096 H   0  0  0  0  0  0  0  0  0  0  0  0
    2.4234   -2.8639   12.5005 H   0  0  0  0  0  0  0  0  0  0  0  0
    4.4646   -4.9148   13.6476 H   0  0  0  0  0  0  0  0  0  0  0  0
    4.6765   -3.9605   12.1160 H   0  0  0  0  0  0  0  0  0  0  0  0
    2.3028   -6.3344    6.1465 H   0  0  0  0  0  0  0  0  0  0  0  0
    3.6135   -0.6466    3.7248 H   0  0  0  0  0  0  0  0  0  0  0  0
    4.0250    1.0762   -0.3958 H   0  0  0  0  0  0  0  0  0  0  0  0
    0.7674    0.7030   -2.2625 H   0  0  0  0  0  0  0  0  0  0  0  0
    0.3342    1.7932   -4.3586 H   0  0  0  0  0  0  0  0  0  0  0  0
    4.6546    2.5731   -2.0766 H   0  0  0  0  0  0  0  0  0  0  0  0
  1  2  2  0  0  0  0
  2  3  1  0  0  0  0
  2 23  1  0  0  0  0
  3  4  1  0  0  0  0
  3 35  1  0  0  0  0
  4  5  1  0  0  0  0
  4 22  2  0  0  0  0
  5  6  2  0  0  0  0
  5 36  1  0  0  0  0
  6  7  1  0  0  0  0
  6 37  1  0  0  0  0
  7  8  2  0  0  0  0
  7 38  1  0  0  0  0
  8  9  1  0  0  0  0
  8 22  1  0  0  0  0
  9 10  1  0  0  0  0
 10 11  1  0  0  0  0
 10 21  2  0  0  0  0
 11 12  2  0  0  0  0
 11 39  1  0  0  0  0
 12 13  1  0  0  0  0
 12 19  1  0  0  0  0
 13 14  1  0  0  0  0
 13 40  1  0  0  0  0
 14 15  2  0  0  0  0
 14 16  1  0  0  0  0
 16 17  1  0  0  0  0
 16 18  1  0  0  0  0
 16 41  1  0  0  0  0
 17 18  1  0  0  0  0
 17 42  1  0  0  0  0
 17 43  1  0  0  0  0
 18 44  1  0  0  0  0
 18 45  1  0  0  0  0
 19 20  2  0  0  0  0
 20 21  1  0  0  0  0
 20 46  1  0  0  0  0
 22 47  1  0  0  0  0
 23 24  1  0  0  0  0
 23 48  1  0  0  0  0
 24 25  1  0  0  0  0
 24 34  2  0  0  0  0
 25 26  2  0  0  0  0
 25 49  1  0  0  0  0
 26 27  1  0  0  0  0
 26 50  1  0  0  0  0
 27 28  1  0  0  0  0
 27 29  2  0  0  0  0
 29 30  1  0  0  0  0
 29 34  1  0  0  0  0
 30 31  1  0  0  0  0
 30 32  1  0  0  0  0
 30 33  1  0  0  0  0
 34 51  1  0  0  0  0
M  END
$$$$
