CHEMBL3942331
 OpenBabel04072215373D

 51 54  0  0  0  0  0  0  0  0999 V2000
    2.7617   -1.3011    3.1198 O   0  0  0  0  0  0  0  0  0  0  0  0
    2.3316   -0.7802    2.0964 C   0  0  0  0  0  0  0  0  0  0  0  0
    1.0107   -0.8546    1.6745 N   0  0  0  0  0  0  0  0  0  0  0  0
   -0.0195   -1.5563    2.3492 C   0  0  0  0  0  0  0  0  0  0  0  0
    0.0814   -1.9670    3.6808 C   0  0  0  0  0  0  0  0  0  0  0  0
   -0.9355   -2.7139    4.2657 C   0  0  0  0  0  0  0  0  0  0  0  0
   -0.8101   -3.1153    5.5374 F   0  0  0  0  0  0  0  0  0  0  0  0
   -2.0727   -3.0616    3.5534 C   0  0  0  0  0  0  0  0  0  0  0  0
   -2.2126   -2.6431    2.2249 C   0  0  0  0  0  0  0  0  0  0  0  0
   -3.4308   -3.0304    1.4267 C   0  0  0  0  0  0  0  0  0  0  0  0
   -4.3035   -3.8204    2.1113 F   0  0  0  0  0  0  0  0  0  0  0  0
   -4.1473   -1.9495    1.0143 F   0  0  0  0  0  0  0  0  0  0  0  0
   -3.1104   -3.7208    0.2975 F   0  0  0  0  0  0  0  0  0  0  0  0
   -1.1859   -1.8731    1.6361 C   0  0  0  0  0  0  0  0  0  0  0  0
    3.1243   -0.0862    1.2015 N   0  0  0  0  0  0  0  0  0  0  0  0
    4.5474   -0.0727    1.1947 C   0  0  0  0  0  0  0  0  0  0  0  0
    5.3119   -1.0275    1.8780 C   0  0  0  0  0  0  0  0  0  0  0  0
    6.7091   -1.0388    1.7816 C   0  0  0  0  0  0  0  0  0  0  0  0
    7.3687   -0.0977    0.9941 C   0  0  0  0  0  0  0  0  0  0  0  0
    8.7340   -0.2480    0.8651 O   0  0  0  0  0  0  0  0  0  0  0  0
    9.5305    0.8930    0.8450 C   0  0  0  0  0  0  0  0  0  0  0  0
   10.7942    0.7646    0.2941 C   0  0  0  0  0  0  0  0  0  0  0  0
   11.5656    1.9083    0.2866 C   0  0  0  0  0  0  0  0  0  0  0  0
   12.8716    1.8607   -0.2492 N   0  0  0  0  0  0  0  0  0  0  0  0
   13.6599    2.9838   -0.4138 C   0  0  0  0  0  0  0  0  0  0  0  0
   13.3303    4.1468   -0.2133 O   0  0  0  0  0  0  0  0  0  0  0  0
   15.0479    2.7817   -0.9265 C   0  0  0  0  0  0  0  0  0  0  0  0
   15.2806    2.0547   -2.2292 C   0  0  0  0  0  0  0  0  0  0  0  0
   15.8370    1.4992   -0.9475 C   0  0  0  0  0  0  0  0  0  0  0  0
   11.1088    3.0585    0.7922 N   0  0  0  0  0  0  0  0  0  0  0  0
    9.8837    3.0709    1.3210 C   0  0  0  0  0  0  0  0  0  0  0  0
    9.0587    2.0278    1.3864 N   0  0  0  0  0  0  0  0  0  0  0  0
    6.6217    0.8599    0.3033 C   0  0  0  0  0  0  0  0  0  0  0  0
    5.2262    0.8832    0.4208 C   0  0  0  0  0  0  0  0  0  0  0  0
    4.3576    2.1258   -0.4167 Cl  0  0  0  0  0  0  0  0  0  0  0  0
    0.8365   -0.5958    0.7140 H   0  0  0  0  0  0  0  0  0  0  0  0
    0.9363   -1.7307    4.3025 H   0  0  0  0  0  0  0  0  0  0  0  0
   -2.8364   -3.6606    4.0435 H   0  0  0  0  0  0  0  0  0  0  0  0
   -1.2994   -1.5562    0.6001 H   0  0  0  0  0  0  0  0  0  0  0  0
    2.6761    0.6097    0.6195 H   0  0  0  0  0  0  0  0  0  0  0  0
    4.8488   -1.8049    2.4794 H   0  0  0  0  0  0  0  0  0  0  0  0
    7.2721   -1.7976    2.3200 H   0  0  0  0  0  0  0  0  0  0  0  0
   11.1281   -0.1775   -0.1165 H   0  0  0  0  0  0  0  0  0  0  0  0
   13.2315    0.9687   -0.5499 H   0  0  0  0  0  0  0  0  0  0  0  0
   15.6527    3.6735   -0.7653 H   0  0  0  0  0  0  0  0  0  0  0  0
   15.9554    2.5299   -2.9335 H   0  0  0  0  0  0  0  0  0  0  0  0
   14.4573    1.5304   -2.6979 H   0  0  0  0  0  0  0  0  0  0  0  0
   16.9103    1.5804   -0.7969 H   0  0  0  0  0  0  0  0  0  0  0  0
   15.4166    0.5899   -0.5438 H   0  0  0  0  0  0  0  0  0  0  0  0
    9.5314    4.0129    1.7248 H   0  0  0  0  0  0  0  0  0  0  0  0
    7.1185    1.5933   -0.3249 H   0  0  0  0  0  0  0  0  0  0  0  0
  1  2  2  0  0  0  0
  2  3  1  0  0  0  0
  2 15  1  0  0  0  0
  3  4  1  0  0  0  0
  3 36  1  0  0  0  0
  4  5  1  0  0  0  0
  4 14  2  0  0  0  0
  5  6  2  0  0  0  0
  5 37  1  0  0  0  0
  6  7  1  0  0  0  0
  6  8  1  0  0  0  0
  8  9  2  0  0  0  0
  8 38  1  0  0  0  0
  9 10  1  0  0  0  0
  9 14  1  0  0  0  0
 10 11  1  0  0  0  0
 10 12  1  0  0  0  0
 10 13  1  0  0  0  0
 14 39  1  0  0  0  0
 15 16  1  0  0  0  0
 15 40  1  0  0  0  0
 16 17  1  0  0  0  0
 16 34  2  0  0  0  0
 17 18  2  0  0  0  0
 17 41  1  0  0  0  0
 18 19  1  0  0  0  0
 18 42  1  0  0  0  0
 19 20  1  0  0  0  0
 19 33  2  0  0  0  0
 20 21  1  0  0  0  0
 21 22  1  0  0  0  0
 21 32  2  0  0  0  0
 22 23  2  0  0  0  0
 22 43  1  0  0  0  0
 23 24  1  0  0  0  0
 23 30  1  0  0  0  0
 24 25  1  0  0  0  0
 24 44  1  0  0  0  0
 25 26  2  0  0  0  0
 25 27  1  0  0  0  0
 27 28  1  0  0  0  0
 27 29  1  0  0  0  0
 27 45  1  0  0  0  0
 28 29  1  0  0  0  0
 28 46  1  0  0  0  0
 28 47  1  0  0  0  0
 29 48  1  0  0  0  0
 29 49  1  0  0  0  0
 30 31  2  0  0  0  0
 31 32  1  0  0  0  0
 31 50  1  0  0  0  0
 33 34  1  0  0  0  0
 33 51  1  0  0  0  0
 34 35  1  0  0  0  0
M  END
$$$$
