CHEMBL3984969
 OpenBabel04072215373D

 58 61  0  0  0  0  0  0  0  0999 V2000
    0.2548   -4.2818    1.2363 C   0  0  0  0  0  0  0  0  0  0  0  0
    1.6649   -4.6689    1.3086 N   0  0  0  0  0  0  0  0  0  0  0  0
    1.9884   -5.8485    2.0956 C   0  0  0  0  0  0  0  0  0  0  0  0
    2.7022   -3.7945    0.7847 C   0  0  0  0  0  0  0  0  0  0  0  0
    2.3281   -2.5612    0.2077 C   0  0  0  0  0  0  0  0  0  0  0  0
    3.2782   -1.6289   -0.1709 C   0  0  0  0  0  0  0  0  0  0  0  0
    4.6280   -1.8830    0.0191 C   0  0  0  0  0  0  0  0  0  0  0  0
    5.0872   -3.1039    0.5555 C   0  0  0  0  0  0  0  0  0  0  0  0
    6.4643   -3.2048    1.0010 N   0  0  0  0  0  0  0  0  0  0  0  0
    7.0030   -1.9795    1.6565 C   0  0  0  0  0  0  0  0  0  0  0  0
    6.1856   -1.2834    2.8018 C   0  0  0  0  0  0  0  0  0  0  0  0
    6.5080   -2.0603    4.1000 C   0  0  0  0  0  0  0  0  0  0  0  0
    5.0827   -1.8204    3.7238 C   0  0  0  0  0  0  0  0  0  0  0  0
    7.5433   -4.1105    0.5607 C   0  0  0  0  0  0  0  0  0  0  0  0
    8.4912   -4.3906    1.5621 C   0  0  0  0  0  0  0  0  0  0  0  0
    9.7523   -4.8640    1.2740 C   0  0  0  0  0  0  0  0  0  0  0  0
   10.1261   -5.1448    0.0067 C   0  0  0  0  0  0  0  0  0  0  0  0
   11.4277   -5.4400   -0.2029 N   0  0  0  0  0  0  0  0  0  0  0  0
   11.9092   -5.7435   -1.4155 C   0  0  0  0  0  0  0  0  0  0  0  0
   11.0331   -5.8735   -2.4856 C   0  0  0  0  0  0  0  0  0  0  0  0
   11.6609   -6.5414   -3.6740 C   0  0  0  0  0  0  0  0  0  0  0  0
   11.2895   -7.7527   -4.2312 C   0  0  0  0  0  0  0  0  0  0  0  0
   12.2022   -8.1230   -5.1534 N   0  0  0  0  0  0  0  0  0  0  0  0
   13.1442   -7.1953   -5.2065 N   0  0  0  0  0  0  0  0  0  0  0  0
   14.3077   -7.2597   -6.0966 C   0  0  0  0  0  0  0  0  0  0  0  0
   12.8700   -6.2260   -4.3001 C   0  0  0  0  0  0  0  0  0  0  0  0
    9.6830   -5.5355   -2.3050 N   0  0  0  0  0  0  0  0  0  0  0  0
    9.2091   -5.0967   -1.0670 C   0  0  0  0  0  0  0  0  0  0  0  0
    7.8756   -4.5516   -0.7953 C   0  0  0  0  0  0  0  0  0  0  0  0
    4.1091   -4.0746    0.9199 C   0  0  0  0  0  0  0  0  0  0  0  0
    1.8331    0.7966   -2.8617 Cl  0  0  0  0  0  0  0  0  0  0  0  0
   -0.4147   -5.0265    1.7217 H   0  0  0  0  0  0  0  0  0  0  0  0
   -0.0755   -4.2023    0.1778 H   0  0  0  0  0  0  0  0  0  0  0  0
    0.0898   -3.3120    1.7540 H   0  0  0  0  0  0  0  0  0  0  0  0
    1.1733   -6.0776    2.8201 H   0  0  0  0  0  0  0  0  0  0  0  0
    2.8672   -5.6702    2.7447 H   0  0  0  0  0  0  0  0  0  0  0  0
    2.1238   -6.7266    1.4341 H   0  0  0  0  0  0  0  0  0  0  0  0
    1.2928   -2.2728    0.0838 H   0  0  0  0  0  0  0  0  0  0  0  0
    2.9632   -0.6712   -0.5607 H   0  0  0  0  0  0  0  0  0  0  0  0
    5.3065   -1.0824   -0.2260 H   0  0  0  0  0  0  0  0  0  0  0  0
    7.1361   -1.2090    0.8750 H   0  0  0  0  0  0  0  0  0  0  0  0
    8.0454   -2.0670    2.0139 H   0  0  0  0  0  0  0  0  0  0  0  0
    6.5980   -0.2775    3.0411 H   0  0  0  0  0  0  0  0  0  0  0  0
    6.6508   -1.4924    5.0486 H   0  0  0  0  0  0  0  0  0  0  0  0
    6.5866   -3.1675    4.1153 H   0  0  0  0  0  0  0  0  0  0  0  0
    4.5775   -0.9366    4.1835 H   0  0  0  0  0  0  0  0  0  0  0  0
    4.5183   -2.6700    3.2983 H   0  0  0  0  0  0  0  0  0  0  0  0
    8.2832   -4.1336    2.5898 H   0  0  0  0  0  0  0  0  0  0  0  0
   10.4562   -4.9557    2.0922 H   0  0  0  0  0  0  0  0  0  0  0  0
   12.9609   -5.9892   -1.5079 H   0  0  0  0  0  0  0  0  0  0  0  0
   10.4580   -8.3738   -3.9221 H   0  0  0  0  0  0  0  0  0  0  0  0
   14.2828   -8.1921   -6.7048 H   0  0  0  0  0  0  0  0  0  0  0  0
   15.2565   -7.2479   -5.5221 H   0  0  0  0  0  0  0  0  0  0  0  0
   14.2898   -6.3813   -6.7864 H   0  0  0  0  0  0  0  0  0  0  0  0
   13.5059   -5.3721   -4.1187 H   0  0  0  0  0  0  0  0  0  0  0  0
    7.1868   -4.3752   -1.6175 H   0  0  0  0  0  0  0  0  0  0  0  0
    4.4476   -4.9809    1.3966 H   0  0  0  0  0  0  0  0  0  0  0  0
    1.1680   -0.1452   -2.1106 H   0  0  0  0  0  0  0  0  0  0  0  0
  1  2  1  0  0  0  0
  1 32  1  0  0  0  0
  1 33  1  0  0  0  0
  1 34  1  0  0  0  0
  2  3  1  0  0  0  0
  2  4  1  0  0  0  0
  3 35  1  0  0  0  0
  3 36  1  0  0  0  0
  3 37  1  0  0  0  0
  4  5  1  0  0  0  0
  4 30  2  0  0  0  0
  5  6  2  0  0  0  0
  5 38  1  0  0  0  0
  6  7  1  0  0  0  0
  6 39  1  0  0  0  0
  7  8  2  0  0  0  0
  7 40  1  0  0  0  0
  8  9  1  0  0  0  0
  8 30  1  0  0  0  0
  9 10  1  0  0  0  0
  9 14  1  0  0  0  0
 10 11  1  0  0  0  0
 10 41  1  0  0  0  0
 10 42  1  0  0  0  0
 11 12  1  0  0  0  0
 11 13  1  0  0  0  0
 11 43  1  0  0  0  0
 12 13  1  0  0  0  0
 12 44  1  0  0  0  0
 12 45  1  0  0  0  0
 13 46  1  0  0  0  0
 13 47  1  0  0  0  0
 14 15  1  0  0  0  0
 14 29  2  0  0  0  0
 15 16  2  0  0  0  0
 15 48  1  0  0  0  0
 16 17  1  0  0  0  0
 16 49  1  0  0  0  0
 17 18  1  0  0  0  0
 17 28  2  0  0  0  0
 18 19  2  0  0  0  0
 19 20  1  0  0  0  0
 19 50  1  0  0  0  0
 20 21  1  0  0  0  0
 20 27  2  0  0  0  0
 21 22  1  0  0  0  0
 21 26  2  0  0  0  0
 22 23  2  0  0  0  0
 22 51  1  0  0  0  0
 23 24  1  0  0  0  0
 24 25  1  0  0  0  0
 24 26  1  0  0  0  0
 25 52  1  0  0  0  0
 25 53  1  0  0  0  0
 25 54  1  0  0  0  0
 26 55  1  0  0  0  0
 27 28  1  0  0  0  0
 28 29  1  0  0  0  0
 29 56  1  0  0  0  0
 30 57  1  0  0  0  0
 31 58  1  0  0  0  0
M  END
$$$$
