CHEMBL519590
 OpenBabel04072215383D

 54 57  0  0  0  0  0  0  0  0999 V2000
    5.4030   -4.7942   -0.9954 C   0  0  0  0  0  0  0  0  0  0  0  0
    4.4246   -4.4127   -0.0349 O   0  0  0  0  0  0  0  0  0  0  0  0
    4.9282   -3.4971    0.9383 C   0  0  0  0  0  0  0  0  0  0  0  0
    5.3036   -2.2335    0.3188 N   0  0  0  0  0  0  0  0  0  0  0  0
    6.5746   -1.7152    0.3315 C   0  0  0  0  0  0  0  0  0  0  0  0
    6.5439   -0.5200   -0.3487 C   0  0  0  0  0  0  0  0  0  0  0  0
    7.6628    0.3334   -0.4854 C   0  0  0  0  0  0  0  0  0  0  0  0
    8.6016    0.3678   -1.4412 C   0  0  0  0  0  0  0  0  0  0  0  0
    8.7438   -0.4507   -2.6365 C   0  0  0  0  0  0  0  0  0  0  0  0
    8.1222   -0.0803   -3.8304 C   0  0  0  0  0  0  0  0  0  0  0  0
    8.3006   -0.8313   -5.0052 C   0  0  0  0  0  0  0  0  0  0  0  0
    7.7201   -0.4749   -6.1950 O   0  0  0  0  0  0  0  0  0  0  0  0
    6.9306    0.7028   -6.2578 C   0  0  0  0  0  0  0  0  0  0  0  0
    9.1082   -1.9963   -4.9804 C   0  0  0  0  0  0  0  0  0  0  0  0
    9.3655   -2.8119   -6.0516 O   0  0  0  0  0  0  0  0  0  0  0  0
    8.8480   -2.5287   -7.3395 C   0  0  0  0  0  0  0  0  0  0  0  0
    9.7139   -2.3799   -3.7617 C   0  0  0  0  0  0  0  0  0  0  0  0
   10.5184   -3.4645   -3.5028 O   0  0  0  0  0  0  0  0  0  0  0  0
   10.8647   -4.3457   -4.5589 C   0  0  0  0  0  0  0  0  0  0  0  0
    9.5245   -1.6032   -2.6093 C   0  0  0  0  0  0  0  0  0  0  0  0
    9.5553    1.4224   -1.0177 C   0  0  0  0  0  0  0  0  0  0  0  0
   10.5668    1.7624   -1.5965 O   0  0  0  0  0  0  0  0  0  0  0  0
    9.0932    1.9492    0.1638 N   0  0  0  0  0  0  0  0  0  0  0  0
    7.8830    1.3329    0.6013 C   0  0  0  0  0  0  0  0  0  0  0  0
    5.2162   -0.3083   -0.8147 C   0  0  0  0  0  0  0  0  0  0  0  0
    4.5810    0.7055   -1.5622 C   0  0  0  0  0  0  0  0  0  0  0  0
    3.2103    0.6121   -1.8282 C   0  0  0  0  0  0  0  0  0  0  0  0
    2.4709   -0.4732   -1.3687 C   0  0  0  0  0  0  0  0  0  0  0  0
    3.0774   -1.4970   -0.6370 C   0  0  0  0  0  0  0  0  0  0  0  0
    4.4508   -1.3903   -0.3674 C   0  0  0  0  0  0  0  0  0  0  0  0
    4.9469   -5.5161   -1.6773 H   0  0  0  0  0  0  0  0  0  0  0  0
    6.2607   -5.2639   -0.5051 H   0  0  0  0  0  0  0  0  0  0  0  0
    5.7310   -3.9360   -1.5896 H   0  0  0  0  0  0  0  0  0  0  0  0
    5.7889   -3.9215    1.4659 H   0  0  0  0  0  0  0  0  0  0  0  0
    4.1396   -3.2802    1.6664 H   0  0  0  0  0  0  0  0  0  0  0  0
    7.3883   -2.2354    0.8216 H   0  0  0  0  0  0  0  0  0  0  0  0
    7.5082    0.8145   -3.8242 H   0  0  0  0  0  0  0  0  0  0  0  0
    6.5821    0.8112   -7.2892 H   0  0  0  0  0  0  0  0  0  0  0  0
    7.5232    1.5919   -6.0146 H   0  0  0  0  0  0  0  0  0  0  0  0
    6.0484    0.6210   -5.6157 H   0  0  0  0  0  0  0  0  0  0  0  0
    9.1950   -3.3199   -8.0114 H   0  0  0  0  0  0  0  0  0  0  0  0
    9.2392   -1.5839   -7.7297 H   0  0  0  0  0  0  0  0  0  0  0  0
    7.7546   -2.5656   -7.3458 H   0  0  0  0  0  0  0  0  0  0  0  0
   11.5174   -5.1201   -4.1423 H   0  0  0  0  0  0  0  0  0  0  0  0
   11.4363   -3.8318   -5.3381 H   0  0  0  0  0  0  0  0  0  0  0  0
    9.9810   -4.8551   -4.9565 H   0  0  0  0  0  0  0  0  0  0  0  0
   10.0121   -1.9064   -1.6847 H   0  0  0  0  0  0  0  0  0  0  0  0
    9.6069    2.6694    0.6524 H   0  0  0  0  0  0  0  0  0  0  0  0
    7.0957    2.0901    0.6556 H   0  0  0  0  0  0  0  0  0  0  0  0
    8.0501    0.8761    1.5799 H   0  0  0  0  0  0  0  0  0  0  0  0
    5.1491    1.5542   -1.9304 H   0  0  0  0  0  0  0  0  0  0  0  0
    2.7185    1.3957   -2.3991 H   0  0  0  0  0  0  0  0  0  0  0  0
    1.4061   -0.5314   -1.5828 H   0  0  0  0  0  0  0  0  0  0  0  0
    2.4982   -2.3501   -0.2959 H   0  0  0  0  0  0  0  0  0  0  0  0
  1  2  1  0  0  0  0
  1 31  1  0  0  0  0
  1 32  1  0  0  0  0
  1 33  1  0  0  0  0
  2  3  1  0  0  0  0
  3  4  1  0  0  0  0
  3 34  1  0  0  0  0
  3 35  1  0  0  0  0
  4  5  1  0  0  0  0
  4 30  1  0  0  0  0
  5  6  2  0  0  0  0
  5 36  1  0  0  0  0
  6  7  1  0  0  0  0
  6 25  1  0  0  0  0
  7  8  2  0  0  0  0
  7 24  1  0  0  0  0
  8  9  1  0  0  0  0
  8 21  1  0  0  0  0
  9 10  1  0  0  0  0
  9 20  2  0  0  0  0
 10 11  2  0  0  0  0
 10 37  1  0  0  0  0
 11 12  1  0  0  0  0
 11 14  1  0  0  0  0
 12 13  1  0  0  0  0
 13 38  1  0  0  0  0
 13 39  1  0  0  0  0
 13 40  1  0  0  0  0
 14 15  1  0  0  0  0
 14 17  2  0  0  0  0
 15 16  1  0  0  0  0
 16 41  1  0  0  0  0
 16 42  1  0  0  0  0
 16 43  1  0  0  0  0
 17 18  1  0  0  0  0
 17 20  1  0  0  0  0
 18 19  1  0  0  0  0
 19 44  1  0  0  0  0
 19 45  1  0  0  0  0
 19 46  1  0  0  0  0
 20 47  1  0  0  0  0
 21 22  2  0  0  0  0
 21 23  1  0  0  0  0
 23 24  1  0  0  0  0
 23 48  1  0  0  0  0
 24 49  1  0  0  0  0
 24 50  1  0  0  0  0
 25 26  1  0  0  0  0
 25 30  2  0  0  0  0
 26 27  2  0  0  0  0
 26 51  1  0  0  0  0
 27 28  1  0  0  0  0
 27 52  1  0  0  0  0
 28 29  2  0  0  0  0
 28 53  1  0  0  0  0
 29 30  1  0  0  0  0
 29 54  1  0  0  0  0
M  END
$$$$
