CHEMBL3660281
 OpenBabel04072215373D

 52 55  0  0  0  0  0  0  0  0999 V2000
    1.2148    0.7045    0.5714 O   0  0  0  0  0  0  0  0  0  0  0  0
    2.2828    0.2343    0.1993 C   0  0  0  0  0  0  0  0  0  0  0  0
    2.8091    0.4059   -1.0731 N   0  0  0  0  0  0  0  0  0  0  0  0
    2.1599    1.0856   -2.1321 C   0  0  0  0  0  0  0  0  0  0  0  0
    1.0342    1.8912   -1.9443 C   0  0  0  0  0  0  0  0  0  0  0  0
    0.3575    2.4476   -3.0286 C   0  0  0  0  0  0  0  0  0  0  0  0
    0.8538    2.2880   -4.3191 C   0  0  0  0  0  0  0  0  0  0  0  0
    0.2628    2.8215   -5.4424 O   0  0  0  0  0  0  0  0  0  0  0  0
   -0.4164    4.0172   -5.3480 C   0  0  0  0  0  0  0  0  0  0  0  0
   -0.0243    5.0721   -4.5272 C   0  0  0  0  0  0  0  0  0  0  0  0
   -0.8103    6.2080   -4.5073 C   0  0  0  0  0  0  0  0  0  0  0  0
   -1.9041    6.3758   -5.2788 N   0  0  0  0  0  0  0  0  0  0  0  0
   -2.2316    5.3570   -6.1135 C   0  0  0  0  0  0  0  0  0  0  0  0
   -3.3965    5.6357   -6.9481 C   0  0  0  0  0  0  0  0  0  0  0  0
   -4.0509    4.9028   -7.9203 C   0  0  0  0  0  0  0  0  0  0  0  0
   -5.1251    5.6870   -8.4432 C   0  0  0  0  0  0  0  0  0  0  0  0
   -6.0590    5.2793   -9.4866 C   0  0  0  0  0  0  0  0  0  0  0  0
   -6.2738    4.1113   -9.7767 O   0  0  0  0  0  0  0  0  0  0  0  0
   -6.6532    6.3057  -10.1465 O   0  0  0  0  0  0  0  0  0  0  0  0
   -5.1078    6.8796   -7.7418 C   0  0  0  0  0  0  0  0  0  0  0  0
   -4.0708    6.8323   -6.8455 N   0  0  0  0  0  0  0  0  0  0  0  0
   -1.5215    4.1680   -6.1799 C   0  0  0  0  0  0  0  0  0  0  0  0
    1.9887    1.5013   -4.5210 C   0  0  0  0  0  0  0  0  0  0  0  0
    2.6436    0.9068   -3.4327 C   0  0  0  0  0  0  0  0  0  0  0  0
    3.0931   -0.5555    0.9981 N   0  0  0  0  0  0  0  0  0  0  0  0
    2.7767   -1.0215    2.2983 C   0  0  0  0  0  0  0  0  0  0  0  0
    1.5746   -0.7581    2.9480 C   0  0  0  0  0  0  0  0  0  0  0  0
    1.3291   -1.2396    4.2347 C   0  0  0  0  0  0  0  0  0  0  0  0
    2.2797   -2.0181    4.8934 C   0  0  0  0  0  0  0  0  0  0  0  0
    1.8737   -2.5362    6.4859 Cl  0  0  0  0  0  0  0  0  0  0  0  0
    3.4830   -2.3333    4.2574 C   0  0  0  0  0  0  0  0  0  0  0  0
    4.5482   -3.2194    4.8494 C   0  0  0  0  0  0  0  0  0  0  0  0
    4.3101   -3.7265    6.0839 F   0  0  0  0  0  0  0  0  0  0  0  0
    4.7852   -4.3029    4.0511 F   0  0  0  0  0  0  0  0  0  0  0  0
    5.7483   -2.5761    4.9405 F   0  0  0  0  0  0  0  0  0  0  0  0
    3.7232   -1.8111    2.9605 C   0  0  0  0  0  0  0  0  0  0  0  0
    3.6070   -0.1566   -1.3240 H   0  0  0  0  0  0  0  0  0  0  0  0
    0.6356    2.1094   -0.9592 H   0  0  0  0  0  0  0  0  0  0  0  0
   -0.5526    3.0069   -2.8314 H   0  0  0  0  0  0  0  0  0  0  0  0
    0.8547    5.0142   -3.8960 H   0  0  0  0  0  0  0  0  0  0  0  0
   -0.5728    7.0374   -3.8474 H   0  0  0  0  0  0  0  0  0  0  0  0
   -3.7895    3.9042   -8.2502 H   0  0  0  0  0  0  0  0  0  0  0  0
   -6.2743    7.1633   -9.8828 H   0  0  0  0  0  0  0  0  0  0  0  0
   -5.7519    7.7492   -7.7651 H   0  0  0  0  0  0  0  0  0  0  0  0
   -3.8062    7.5506   -6.1801 H   0  0  0  0  0  0  0  0  0  0  0  0
   -1.8115    3.3715   -6.8548 H   0  0  0  0  0  0  0  0  0  0  0  0
    2.3586    1.3381   -5.5302 H   0  0  0  0  0  0  0  0  0  0  0  0
    3.5146    0.2873   -3.6266 H   0  0  0  0  0  0  0  0  0  0  0  0
    4.0090   -0.7810    0.6421 H   0  0  0  0  0  0  0  0  0  0  0  0
    0.7788   -0.1755    2.4895 H   0  0  0  0  0  0  0  0  0  0  0  0
    0.3802   -0.9999    4.7116 H   0  0  0  0  0  0  0  0  0  0  0  0
    4.6678   -2.0483    2.4708 H   0  0  0  0  0  0  0  0  0  0  0  0
  1  2  2  0  0  0  0
  2  3  1  0  0  0  0
  2 25  1  0  0  0  0
  3  4  1  0  0  0  0
  3 37  1  0  0  0  0
  4  5  1  0  0  0  0
  4 24  2  0  0  0  0
  5  6  2  0  0  0  0
  5 38  1  0  0  0  0
  6  7  1  0  0  0  0
  6 39  1  0  0  0  0
  7  8  1  0  0  0  0
  7 23  2  0  0  0  0
  8  9  1  0  0  0  0
  9 10  1  0  0  0  0
  9 22  2  0  0  0  0
 10 11  2  0  0  0  0
 10 40  1  0  0  0  0
 11 12  1  0  0  0  0
 11 41  1  0  0  0  0
 12 13  2  0  0  0  0
 13 14  1  0  0  0  0
 13 22  1  0  0  0  0
 14 15  2  0  0  0  0
 14 21  1  0  0  0  0
 15 16  1  0  0  0  0
 15 42  1  0  0  0  0
 16 17  1  0  0  0  0
 16 20  2  0  0  0  0
 17 18  2  0  0  0  0
 17 19  1  0  0  0  0
 19 43  1  0  0  0  0
 20 21  1  0  0  0  0
 20 44  1  0  0  0  0
 21 45  1  0  0  0  0
 22 46  1  0  0  0  0
 23 24  1  0  0  0  0
 23 47  1  0  0  0  0
 24 48  1  0  0  0  0
 25 26  1  0  0  0  0
 25 49  1  0  0  0  0
 26 27  1  0  0  0  0
 26 36  2  0  0  0  0
 27 28  2  0  0  0  0
 27 50  1  0  0  0  0
 28 29  1  0  0  0  0
 28 51  1  0  0  0  0
 29 30  1  0  0  0  0
 29 31  2  0  0  0  0
 31 32  1  0  0  0  0
 31 36  1  0  0  0  0
 32 33  1  0  0  0  0
 32 34  1  0  0  0  0
 32 35  1  0  0  0  0
 36 52  1  0  0  0  0
M  END
$$$$
