CHEMBL3915158
 OpenBabel04072215373D

 65 69  0  0  0  0  0  0  0  0999 V2000
    1.6716    0.7517    2.0016 C   0  0  0  0  0  0  0  0  0  0  0  0
    1.8078   -0.4831    1.3966 O   0  0  0  0  0  0  0  0  0  0  0  0
    2.8757   -1.3288    1.4614 C   0  0  0  0  0  0  0  0  0  0  0  0
    2.6478   -2.6541    1.1559 C   0  0  0  0  0  0  0  0  0  0  0  0
    3.6586   -3.5993    1.2840 C   0  0  0  0  0  0  0  0  0  0  0  0
    3.3304   -4.8874    1.0143 O   0  0  0  0  0  0  0  0  0  0  0  0
    4.0979   -5.9928    1.2730 C   0  0  0  0  0  0  0  0  0  0  0  0
    4.1264   -6.3954    2.7633 C   0  0  0  0  0  0  0  0  0  0  0  0
    2.6630   -6.6455    3.1487 C   0  0  0  0  0  0  0  0  0  0  0  0
    3.4929   -5.6946    3.9731 C   0  0  0  0  0  0  0  0  0  0  0  0
    4.9615   -3.2102    1.6722 C   0  0  0  0  0  0  0  0  0  0  0  0
    5.2816   -1.8721    1.9113 C   0  0  0  0  0  0  0  0  0  0  0  0
    6.6539   -1.4491    2.2241 N   0  0  0  0  0  0  0  0  0  0  0  0
    6.9508    0.0104    2.1273 C   0  0  0  0  0  0  0  0  0  0  0  0
    7.8473    0.3952    0.9186 C   0  0  0  0  0  0  0  0  0  0  0  0
    6.9432    0.1466   -0.3063 C   0  0  0  0  0  0  0  0  0  0  0  0
    8.3035   -0.4859   -0.2592 C   0  0  0  0  0  0  0  0  0  0  0  0
    7.8489   -2.2789    2.5353 C   0  0  0  0  0  0  0  0  0  0  0  0
    8.7338   -1.6960    3.4691 C   0  0  0  0  0  0  0  0  0  0  0  0
   10.0112   -2.1274    3.6731 C   0  0  0  0  0  0  0  0  0  0  0  0
   10.4807   -3.2134    3.0266 C   0  0  0  0  0  0  0  0  0  0  0  0
   11.7913   -3.4977    3.1800 N   0  0  0  0  0  0  0  0  0  0  0  0
   12.3708   -4.5650    2.6167 C   0  0  0  0  0  0  0  0  0  0  0  0
   11.5792   -5.4689    1.9225 C   0  0  0  0  0  0  0  0  0  0  0  0
   12.2853   -6.7448    1.6107 C   0  0  0  0  0  0  0  0  0  0  0  0
   12.0637   -7.9856    2.1915 C   0  0  0  0  0  0  0  0  0  0  0  0
   13.0092   -8.8528    1.7659 N   0  0  0  0  0  0  0  0  0  0  0  0
   13.8248   -8.2003    0.9514 N   0  0  0  0  0  0  0  0  0  0  0  0
   14.9533   -8.8135    0.2569 C   0  0  0  0  0  0  0  0  0  0  0  0
   13.4409   -6.9100    0.8591 C   0  0  0  0  0  0  0  0  0  0  0  0
   10.2300   -5.1821    1.7077 N   0  0  0  0  0  0  0  0  0  0  0  0
    9.6572   -4.0109    2.2058 C   0  0  0  0  0  0  0  0  0  0  0  0
    8.3127   -3.5351    1.9305 C   0  0  0  0  0  0  0  0  0  0  0  0
    4.1801   -0.9336    1.8324 C   0  0  0  0  0  0  0  0  0  0  0  0
    2.2076    1.2677   -2.0705 Cl  0  0  0  0  0  0  0  0  0  0  0  0
    0.6593    1.1526    1.7717 H   0  0  0  0  0  0  0  0  0  0  0  0
    2.4252    1.4779    1.6377 H   0  0  0  0  0  0  0  0  0  0  0  0
    1.7454    0.6368    3.1039 H   0  0  0  0  0  0  0  0  0  0  0  0
    1.6515   -2.9583    0.8500 H   0  0  0  0  0  0  0  0  0  0  0  0
    5.1262   -5.8575    0.8788 H   0  0  0  0  0  0  0  0  0  0  0  0
    3.6666   -6.8400    0.7030 H   0  0  0  0  0  0  0  0  0  0  0  0
    4.6987   -7.3164    2.9921 H   0  0  0  0  0  0  0  0  0  0  0  0
    2.4804   -7.5969    3.6877 H   0  0  0  0  0  0  0  0  0  0  0  0
    1.8195   -6.0117    2.7921 H   0  0  0  0  0  0  0  0  0  0  0  0
    3.9586   -6.1158    4.8930 H   0  0  0  0  0  0  0  0  0  0  0  0
    3.4594   -4.6031    3.7882 H   0  0  0  0  0  0  0  0  0  0  0  0
    5.7129   -3.9535    1.7681 H   0  0  0  0  0  0  0  0  0  0  0  0
    7.3800    0.4419    3.0354 H   0  0  0  0  0  0  0  0  0  0  0  0
    6.1000    0.6788    2.0385 H   0  0  0  0  0  0  0  0  0  0  0  0
    8.1269    1.4675    0.8633 H   0  0  0  0  0  0  0  0  0  0  0  0
    6.9518    0.9048   -1.1157 H   0  0  0  0  0  0  0  0  0  0  0  0
    6.2574   -0.7257   -0.3788 H   0  0  0  0  0  0  0  0  0  0  0  0
    9.1202    0.0641   -0.7741 H   0  0  0  0  0  0  0  0  0  0  0  0
    8.4971   -1.4854    0.1621 H   0  0  0  0  0  0  0  0  0  0  0  0
    8.4862   -0.8387    4.0486 H   0  0  0  0  0  0  0  0  0  0  0  0
   10.6483   -1.5794    4.3550 H   0  0  0  0  0  0  0  0  0  0  0  0
   13.4257   -4.7479    2.7883 H   0  0  0  0  0  0  0  0  0  0  0  0
   11.3122   -8.2322    2.9286 H   0  0  0  0  0  0  0  0  0  0  0  0
   15.0239   -9.8973    0.5014 H   0  0  0  0  0  0  0  0  0  0  0  0
   15.9133   -8.3230    0.5311 H   0  0  0  0  0  0  0  0  0  0  0  0
   14.7991   -8.7160   -0.8382 H   0  0  0  0  0  0  0  0  0  0  0  0
   13.9624   -6.1539    0.2861 H   0  0  0  0  0  0  0  0  0  0  0  0
    7.7206   -4.0876    1.2068 H   0  0  0  0  0  0  0  0  0  0  0  0
    4.2466    0.1088    2.0473 H   0  0  0  0  0  0  0  0  0  0  0  0
    2.1924    1.6788   -0.7603 H   0  0  0  0  0  0  0  0  0  0  0  0
  1  2  1  0  0  0  0
  1 36  1  0  0  0  0
  1 37  1  0  0  0  0
  1 38  1  0  0  0  0
  2  3  1  0  0  0  0
  3  4  1  0  0  0  0
  3 34  2  0  0  0  0
  4  5  2  0  0  0  0
  4 39  1  0  0  0  0
  5  6  1  0  0  0  0
  5 11  1  0  0  0  0
  6  7  1  0  0  0  0
  7  8  1  0  0  0  0
  7 40  1  0  0  0  0
  7 41  1  0  0  0  0
  8  9  1  0  0  0  0
  8 10  1  0  0  0  0
  8 42  1  0  0  0  0
  9 10  1  0  0  0  0
  9 43  1  0  0  0  0
  9 44  1  0  0  0  0
 10 45  1  0  0  0  0
 10 46  1  0  0  0  0
 11 12  2  0  0  0  0
 11 47  1  0  0  0  0
 12 13  1  0  0  0  0
 12 34  1  0  0  0  0
 13 14  1  0  0  0  0
 13 18  1  0  0  0  0
 14 15  1  0  0  0  0
 14 48  1  0  0  0  0
 14 49  1  0  0  0  0
 15 16  1  0  0  0  0
 15 17  1  0  0  0  0
 15 50  1  0  0  0  0
 16 17  1  0  0  0  0
 16 51  1  0  0  0  0
 16 52  1  0  0  0  0
 17 53  1  0  0  0  0
 17 54  1  0  0  0  0
 18 19  1  0  0  0  0
 18 33  2  0  0  0  0
 19 20  2  0  0  0  0
 19 55  1  0  0  0  0
 20 21  1  0  0  0  0
 20 56  1  0  0  0  0
 21 22  1  0  0  0  0
 21 32  2  0  0  0  0
 22 23  2  0  0  0  0
 23 24  1  0  0  0  0
 23 57  1  0  0  0  0
 24 25  1  0  0  0  0
 24 31  2  0  0  0  0
 25 26  1  0  0  0  0
 25 30  2  0  0  0  0
 26 27  2  0  0  0  0
 26 58  1  0  0  0  0
 27 28  1  0  0  0  0
 28 29  1  0  0  0  0
 28 30  1  0  0  0  0
 29 59  1  0  0  0  0
 29 60  1  0  0  0  0
 29 61  1  0  0  0  0
 30 62  1  0  0  0  0
 31 32  1  0  0  0  0
 32 33  1  0  0  0  0
 33 63  1  0  0  0  0
 34 64  1  0  0  0  0
 35 65  1  0  0  0  0
M  END
$$$$
