CHEMBL270869
 OpenBabel04072215363D

 70 74  0  0  0  0  0  0  0  0999 V2000
    0.8576   -0.1262    0.2111 C   0  0  0  0  0  0  0  0  0  0  0  0
    2.3727   -0.0609   -0.0061 C   0  0  0  0  0  0  0  0  0  0  0  0
    3.1863   -0.2162    1.2795 C   0  0  0  0  0  0  0  0  0  0  0  0
    2.8421   -0.9823   -1.1111 C   0  0  0  0  0  0  0  0  0  0  0  0
    2.6757   -2.4203   -1.1444 C   0  0  0  0  0  0  0  0  0  0  0  0
    2.1167   -3.3604   -0.1104 C   0  0  0  0  0  0  0  0  0  0  0  0
    1.8673   -4.6422   -0.3179 N   0  0  0  0  0  0  0  0  0  0  0  0
    1.3714   -5.1583    0.8730 N   0  0  0  0  0  0  0  0  0  0  0  0
    1.3910   -4.1717    1.7373 C   0  0  0  0  0  0  0  0  0  0  0  0
    1.1010   -4.1020    3.0488 N   0  0  0  0  0  0  0  0  0  0  0  0
    0.2048   -5.0614    3.6722 C   0  0  0  0  0  0  0  0  0  0  0  0
    0.5134   -5.2387    5.1926 C   0  0  0  0  0  0  0  0  0  0  0  0
    1.9736   -5.7046    5.3630 C   0  0  0  0  0  0  0  0  0  0  0  0
    0.3043   -3.9109    5.9527 C   0  0  0  0  0  0  0  0  0  0  0  0
   -0.4636   -6.3123    5.7570 C   0  0  0  0  0  0  0  0  0  0  0  0
   -0.2923   -6.5849    7.1844 N   0  0  0  0  0  0  0  0  0  0  0  0
    1.8227   -3.0065    1.1832 O   0  0  0  0  0  0  0  0  0  0  0  0
    3.1401   -2.8575   -2.3623 C   0  0  0  0  0  0  0  0  0  0  0  0
    3.6198   -1.7883   -3.0540 N   0  0  0  0  0  0  0  0  0  0  0  0
    4.1445   -1.8686   -4.2845 N   0  0  0  0  0  0  0  0  0  0  0  0
    4.5642   -0.7361   -4.7493 C   0  0  0  0  0  0  0  0  0  0  0  0
    4.5279    0.4636   -4.1079 N   0  0  0  0  0  0  0  0  0  0  0  0
    4.0280    0.5768   -2.9127 C   0  0  0  0  0  0  0  0  0  0  0  0
    4.0471    1.7983   -2.2674 N   0  0  0  0  0  0  0  0  0  0  0  0
    4.8687    2.9283   -2.5067 C   0  0  0  0  0  0  0  0  0  0  0  0
    5.5164    3.2128   -3.7115 C   0  0  0  0  0  0  0  0  0  0  0  0
    6.3599    4.3365   -3.8512 C   0  0  0  0  0  0  0  0  0  0  0  0
    7.0137    4.5564   -5.1729 C   0  0  0  0  0  0  0  0  0  0  0  0
    6.7892    3.7738   -6.0927 O   0  0  0  0  0  0  0  0  0  0  0  0
    7.8469    5.6499   -5.3137 N   0  0  0  0  0  0  0  0  0  0  0  0
    8.4698    5.9502   -6.5650 C   0  0  0  0  0  0  0  0  0  0  0  0
    9.8367    5.4097   -6.8819 C   0  0  0  0  0  0  0  0  0  0  0  0
    9.6453    6.8811   -6.6599 C   0  0  0  0  0  0  0  0  0  0  0  0
    6.5404    5.1843   -2.7577 C   0  0  0  0  0  0  0  0  0  0  0  0
    7.3418    6.2583   -2.8364 F   0  0  0  0  0  0  0  0  0  0  0  0
    5.8908    4.9430   -1.5513 C   0  0  0  0  0  0  0  0  0  0  0  0
    5.0645    3.8306   -1.4444 C   0  0  0  0  0  0  0  0  0  0  0  0
    4.4497    3.5948   -0.2738 F   0  0  0  0  0  0  0  0  0  0  0  0
    3.4914   -0.6398   -2.3129 C   0  0  0  0  0  0  0  0  0  0  0  0
    0.5450    0.5944    0.9738 H   0  0  0  0  0  0  0  0  0  0  0  0
    0.5012   -1.1095    0.5194 H   0  0  0  0  0  0  0  0  0  0  0  0
    0.3336    0.1274   -0.7187 H   0  0  0  0  0  0  0  0  0  0  0  0
    2.5245    0.9714   -0.3121 H   0  0  0  0  0  0  0  0  0  0  0  0
    3.1165   -1.2094    1.7226 H   0  0  0  0  0  0  0  0  0  0  0  0
    2.8565    0.5008    2.0379 H   0  0  0  0  0  0  0  0  0  0  0  0
    4.2494   -0.0350    1.0842 H   0  0  0  0  0  0  0  0  0  0  0  0
    1.1310   -3.1806    3.4669 H   0  0  0  0  0  0  0  0  0  0  0  0
    0.2811   -6.0379    3.1754 H   0  0  0  0  0  0  0  0  0  0  0  0
   -0.8299   -4.7171    3.5415 H   0  0  0  0  0  0  0  0  0  0  0  0
    2.6799   -4.9836    4.9376 H   0  0  0  0  0  0  0  0  0  0  0  0
    2.1349   -6.6655    4.8615 H   0  0  0  0  0  0  0  0  0  0  0  0
    2.2443   -5.8242    6.4167 H   0  0  0  0  0  0  0  0  0  0  0  0
    0.9723   -3.1213    5.5948 H   0  0  0  0  0  0  0  0  0  0  0  0
    0.5036   -4.0255    7.0242 H   0  0  0  0  0  0  0  0  0  0  0  0
   -0.7263   -3.5545    5.8437 H   0  0  0  0  0  0  0  0  0  0  0  0
   -0.3455   -7.2538    5.2082 H   0  0  0  0  0  0  0  0  0  0  0  0
   -1.4980   -5.9815    5.6036 H   0  0  0  0  0  0  0  0  0  0  0  0
    0.6350   -6.9717    7.3575 H   0  0  0  0  0  0  0  0  0  0  0  0
   -0.9516   -7.3053    7.4776 H   0  0  0  0  0  0  0  0  0  0  0  0
    3.1917   -3.8474   -2.7941 H   0  0  0  0  0  0  0  0  0  0  0  0
    5.0010   -0.7256   -5.7626 H   0  0  0  0  0  0  0  0  0  0  0  0
    3.6995    1.8201   -1.3222 H   0  0  0  0  0  0  0  0  0  0  0  0
    5.3749    2.5725   -4.5795 H   0  0  0  0  0  0  0  0  0  0  0  0
    7.9875    6.2858   -4.5348 H   0  0  0  0  0  0  0  0  0  0  0  0
    7.7586    5.9818   -7.3890 H   0  0  0  0  0  0  0  0  0  0  0  0
   10.0070    5.0547   -7.8919 H   0  0  0  0  0  0  0  0  0  0  0  0
   10.3535    4.8386   -6.1200 H   0  0  0  0  0  0  0  0  0  0  0  0
    9.7030    7.5315   -7.5256 H   0  0  0  0  0  0  0  0  0  0  0  0
   10.0515    7.3106   -5.7529 H   0  0  0  0  0  0  0  0  0  0  0  0
    6.0346    5.6032   -0.7051 H   0  0  0  0  0  0  0  0  0  0  0  0
  1  2  1  0  0  0  0
  1 40  1  0  0  0  0
  1 41  1  0  0  0  0
  1 42  1  0  0  0  0
  2  3  1  0  0  0  0
  2  4  1  0  0  0  0
  2 43  1  0  0  0  0
  3 44  1  0  0  0  0
  3 45  1  0  0  0  0
  3 46  1  0  0  0  0
  4  5  1  0  0  0  0
  4 39  2  0  0  0  0
  5  6  1  0  0  0  0
  5 18  2  0  0  0  0
  6  7  2  0  0  0  0
  6 17  1  0  0  0  0
  7  8  1  0  0  0  0
  8  9  2  0  0  0  0
  9 10  1  0  0  0  0
  9 17  1  0  0  0  0
 10 11  1  0  0  0  0
 10 47  1  0  0  0  0
 11 12  1  0  0  0  0
 11 48  1  0  0  0  0
 11 49  1  0  0  0  0
 12 13  1  0  0  0  0
 12 14  1  0  0  0  0
 12 15  1  0  0  0  0
 13 50  1  0  0  0  0
 13 51  1  0  0  0  0
 13 52  1  0  0  0  0
 14 53  1  0  0  0  0
 14 54  1  0  0  0  0
 14 55  1  0  0  0  0
 15 16  1  0  0  0  0
 15 56  1  0  0  0  0
 15 57  1  0  0  0  0
 16 58  1  0  0  0  0
 16 59  1  0  0  0  0
 18 19  1  0  0  0  0
 18 60  1  0  0  0  0
 19 20  1  0  0  0  0
 19 39  1  0  0  0  0
 20 21  2  0  0  0  0
 21 22  1  0  0  0  0
 21 61  1  0  0  0  0
 22 23  2  0  0  0  0
 23 24  1  0  0  0  0
 23 39  1  0  0  0  0
 24 25  1  0  0  0  0
 24 62  1  0  0  0  0
 25 26  1  0  0  0  0
 25 37  2  0  0  0  0
 26 27  2  0  0  0  0
 26 63  1  0  0  0  0
 27 28  1  0  0  0  0
 27 34  1  0  0  0  0
 28 29  2  0  0  0  0
 28 30  1  0  0  0  0
 30 31  1  0  0  0  0
 30 64  1  0  0  0  0
 31 32  1  0  0  0  0
 31 33  1  0  0  0  0
 31 65  1  0  0  0  0
 32 33  1  0  0  0  0
 32 66  1  0  0  0  0
 32 67  1  0  0  0  0
 33 68  1  0  0  0  0
 33 69  1  0  0  0  0
 34 35  1  0  0  0  0
 34 36  2  0  0  0  0
 36 37  1  0  0  0  0
 36 70  1  0  0  0  0
 37 38  1  0  0  0  0
M  END
$$$$
