CHEMBL3933421
 OpenBabel04072215373D

 83 86  0  0  0  0  0  0  0  0999 V2000
  -14.0206  -18.5317    1.2001 C   0  0  0  0  0  0  0  0  0  0  0  0
  -12.7261  -18.5690    0.4642 C   0  0  0  0  0  0  0  0  0  0  0  0
  -12.1042  -19.7189   -0.0938 C   0  0  0  0  0  0  0  0  0  0  0  0
  -10.9343  -19.2919   -0.6758 C   0  0  0  0  0  0  0  0  0  0  0  0
  -10.7903  -17.9522   -0.5277 O   0  0  0  0  0  0  0  0  0  0  0  0
  -11.8784  -17.5037    0.1741 C   0  0  0  0  0  0  0  0  0  0  0  0
  -11.9843  -16.0885    0.4924 C   0  0  0  0  0  0  0  0  0  0  0  0
  -12.9231  -15.6570    1.1588 O   0  0  0  0  0  0  0  0  0  0  0  0
  -10.9731  -15.2990   -0.0564 N   0  0  0  0  0  0  0  0  0  0  0  0
  -10.8562  -13.8969    0.0834 C   0  0  0  0  0  0  0  0  0  0  0  0
  -11.5410  -13.1933    1.0792 C   0  0  0  0  0  0  0  0  0  0  0  0
  -11.5121  -11.8013    1.1321 C   0  0  0  0  0  0  0  0  0  0  0  0
  -10.7712  -11.0926    0.1968 C   0  0  0  0  0  0  0  0  0  0  0  0
  -10.0242  -11.7772   -0.7661 C   0  0  0  0  0  0  0  0  0  0  0  0
   -9.2691  -10.9986   -1.7065 C   0  0  0  0  0  0  0  0  0  0  0  0
   -8.6906  -10.2450   -2.4314 C   0  0  0  0  0  0  0  0  0  0  0  0
   -8.0303   -9.2626   -3.2356 C   0  0  0  0  0  0  0  0  0  0  0  0
   -7.4868   -8.1200   -2.6590 C   0  0  0  0  0  0  0  0  0  0  0  0
   -6.8480   -7.1459   -3.3529 N   0  0  0  0  0  0  0  0  0  0  0  0
   -6.7461   -7.3255   -4.6920 C   0  0  0  0  0  0  0  0  0  0  0  0
   -7.2539   -8.4322   -5.3553 C   0  0  0  0  0  0  0  0  0  0  0  0
   -7.0908   -8.5633   -6.8200 C   0  0  0  0  0  0  0  0  0  0  0  0
   -7.5749   -9.5633   -7.3438 O   0  0  0  0  0  0  0  0  0  0  0  0
   -6.3291   -7.6309   -7.5486 N   0  0  0  0  0  0  0  0  0  0  0  0
   -6.8193   -7.2539   -8.9582 S   0  0  3  0  0  0  0  0  0  0  0  0
   -6.3837   -8.5945  -10.0508 C   0  0  0  0  0  0  0  0  0  0  0  0
   -8.2076   -6.9177   -9.1967 O   0  0  0  0  0  0  0  0  0  0  0  0
   -5.7746   -5.8981   -9.5302 C   0  0  0  0  0  0  0  0  0  0  0  0
   -6.0249   -5.4749  -10.9766 C   0  0  0  0  0  0  0  0  0  0  0  0
   -7.4204   -4.8766  -11.1837 C   0  0  0  0  0  0  0  0  0  0  0  0
   -7.7409   -4.4924  -12.5683 N   0  0  0  0  0  0  0  0  0  0  0  0
   -9.1561   -4.0175  -12.6073 C   0  0  0  0  0  0  0  0  0  0  0  0
  -10.2357   -5.1341  -12.4699 C   0  0  0  0  0  0  0  0  0  0  0  0
  -10.0596   -6.2787  -13.3955 N   0  0  0  0  0  0  0  0  0  0  0  0
  -10.4100   -5.8934  -14.7766 C   0  0  0  0  0  0  0  0  0  0  0  0
  -10.3064   -7.0672  -15.7574 C   0  0  0  0  0  0  0  0  0  0  0  0
  -10.6391   -6.6416  -17.0800 O   0  0  0  0  0  0  0  0  0  0  0  0
  -10.4656   -7.7355  -17.9921 C   0  0  0  0  0  0  0  0  0  0  0  0
  -10.8100   -7.2585  -19.3936 C   0  0  0  0  0  0  0  0  0  0  0  0
   -9.9350   -6.2006  -19.7788 O   0  0  0  0  0  0  0  0  0  0  0  0
   -8.6630   -6.7492  -13.2842 C   0  0  0  0  0  0  0  0  0  0  0  0
   -7.6199   -5.6285  -13.5098 C   0  0  0  0  0  0  0  0  0  0  0  0
   -7.9211   -9.4149   -4.6140 C   0  0  0  0  0  0  0  0  0  0  0  0
  -10.0481  -13.1804   -0.8133 C   0  0  0  0  0  0  0  0  0  0  0  0
  -14.4909  -19.5219    1.2095 H   0  0  0  0  0  0  0  0  0  0  0  0
  -14.7227  -17.8387    0.7264 H   0  0  0  0  0  0  0  0  0  0  0  0
  -13.8731  -18.2254    2.2404 H   0  0  0  0  0  0  0  0  0  0  0  0
  -12.4717  -20.7352   -0.0685 H   0  0  0  0  0  0  0  0  0  0  0  0
  -10.1424  -19.7958   -1.2116 H   0  0  0  0  0  0  0  0  0  0  0  0
  -10.3590  -15.7716   -0.7101 H   0  0  0  0  0  0  0  0  0  0  0  0
  -12.1161  -13.7060    1.8435 H   0  0  0  0  0  0  0  0  0  0  0  0
  -12.0835  -11.2808    1.8953 H   0  0  0  0  0  0  0  0  0  0  0  0
  -10.7818  -10.0055    0.2246 H   0  0  0  0  0  0  0  0  0  0  0  0
   -7.5530   -7.9460   -1.5873 H   0  0  0  0  0  0  0  0  0  0  0  0
   -6.2279   -6.5282   -5.2190 H   0  0  0  0  0  0  0  0  0  0  0  0
   -6.9641   -9.4762   -9.7777 H   0  0  0  0  0  0  0  0  0  0  0  0
   -5.3153   -8.7931   -9.9485 H   0  0  0  0  0  0  0  0  0  0  0  0
   -6.6275   -8.3230  -11.0777 H   0  0  0  0  0  0  0  0  0  0  0  0
   -4.7392   -6.2445   -9.4314 H   0  0  0  0  0  0  0  0  0  0  0  0
   -5.9190   -5.0548   -8.8480 H   0  0  0  0  0  0  0  0  0  0  0  0
   -5.8648   -6.3449  -11.6168 H   0  0  0  0  0  0  0  0  0  0  0  0
   -5.2736   -4.7318  -11.2715 H   0  0  0  0  0  0  0  0  0  0  0  0
   -7.5157   -3.9988  -10.5325 H   0  0  0  0  0  0  0  0  0  0  0  0
   -8.1717   -5.5818  -10.8567 H   0  0  0  0  0  0  0  0  0  0  0  0
   -9.3079   -3.4924  -13.5576 H   0  0  0  0  0  0  0  0  0  0  0  0
   -9.3180   -3.2605  -11.8292 H   0  0  0  0  0  0  0  0  0  0  0  0
  -11.2360   -4.6989  -12.5841 H   0  0  0  0  0  0  0  0  0  0  0  0
  -10.2230   -5.5293  -11.4451 H   0  0  0  0  0  0  0  0  0  0  0  0
   -9.7978   -5.0644  -15.1500 H   0  0  0  0  0  0  0  0  0  0  0  0
  -11.4424   -5.5217  -14.8036 H   0  0  0  0  0  0  0  0  0  0  0  0
  -10.9827   -7.8727  -15.4492 H   0  0  0  0  0  0  0  0  0  0  0  0
   -9.2839   -7.4542  -15.7903 H   0  0  0  0  0  0  0  0  0  0  0  0
  -11.1247   -8.5597  -17.6996 H   0  0  0  0  0  0  0  0  0  0  0  0
   -9.4210   -8.0680  -17.9562 H   0  0  0  0  0  0  0  0  0  0  0  0
  -11.8335   -6.8750  -19.4318 H   0  0  0  0  0  0  0  0  0  0  0  0
  -10.7025   -8.0757  -20.1114 H   0  0  0  0  0  0  0  0  0  0  0  0
  -10.0091   -5.5345  -19.0682 H   0  0  0  0  0  0  0  0  0  0  0  0
   -8.4616   -7.5792  -13.9671 H   0  0  0  0  0  0  0  0  0  0  0  0
   -8.5294   -7.2035  -12.2947 H   0  0  0  0  0  0  0  0  0  0  0  0
   -7.7154   -5.2338  -14.5286 H   0  0  0  0  0  0  0  0  0  0  0  0
   -6.6133   -6.0561  -13.4962 H   0  0  0  0  0  0  0  0  0  0  0  0
   -8.3453  -10.2857   -5.1092 H   0  0  0  0  0  0  0  0  0  0  0  0
   -9.4710  -13.6948   -1.5778 H   0  0  0  0  0  0  0  0  0  0  0  0
  1  2  1  0  0  0  0
  1 45  1  0  0  0  0
  1 46  1  0  0  0  0
  1 47  1  0  0  0  0
  2  3  1  0  0  0  0
  2  6  2  0  0  0  0
  3  4  2  0  0  0  0
  3 48  1  0  0  0  0
  4  5  1  0  0  0  0
  4 49  1  0  0  0  0
  5  6  1  0  0  0  0
  6  7  1  0  0  0  0
  7  8  2  0  0  0  0
  7  9  1  0  0  0  0
  9 10  1  0  0  0  0
  9 50  1  0  0  0  0
 10 11  1  0  0  0  0
 10 44  2  0  0  0  0
 11 12  2  0  0  0  0
 11 51  1  0  0  0  0
 12 13  1  0  0  0  0
 12 52  1  0  0  0  0
 13 14  2  0  0  0  0
 13 53  1  0  0  0  0
 14 15  1  0  0  0  0
 14 44  1  0  0  0  0
 15 16  3  0  0  0  0
 16 17  1  0  0  0  0
 17 18  1  0  0  0  0
 17 43  2  0  0  0  0
 18 19  2  0  0  0  0
 18 54  1  0  0  0  0
 19 20  1  0  0  0  0
 20 21  2  0  0  0  0
 20 55  1  0  0  0  0
 21 22  1  0  0  0  0
 21 43  1  0  0  0  0
 22 23  2  0  0  0  0
 22 24  1  0  0  0  0
 24 25  2  0  0  0  0
 25 26  1  0  0  0  0
 25 27  2  0  0  0  0
 25 28  1  0  0  0  0
 26 56  1  0  0  0  0
 26 57  1  0  0  0  0
 26 58  1  0  0  0  0
 28 29  1  0  0  0  0
 28 59  1  0  0  0  0
 28 60  1  0  0  0  0
 29 30  1  0  0  0  0
 29 61  1  0  0  0  0
 29 62  1  0  0  0  0
 30 31  1  0  0  0  0
 30 63  1  0  0  0  0
 30 64  1  0  0  0  0
 31 32  1  0  0  0  0
 31 42  1  0  0  0  0
 32 33  1  0  0  0  0
 32 65  1  0  0  0  0
 32 66  1  0  0  0  0
 33 34  1  0  0  0  0
 33 67  1  0  0  0  0
 33 68  1  0  0  0  0
 34 35  1  0  0  0  0
 34 41  1  0  0  0  0
 35 36  1  0  0  0  0
 35 69  1  0  0  0  0
 35 70  1  0  0  0  0
 36 37  1  0  0  0  0
 36 71  1  0  0  0  0
 36 72  1  0  0  0  0
 37 38  1  0  0  0  0
 38 39  1  0  0  0  0
 38 73  1  0  0  0  0
 38 74  1  0  0  0  0
 39 40  1  0  0  0  0
 39 75  1  0  0  0  0
 39 76  1  0  0  0  0
 40 77  1  0  0  0  0
 41 42  1  0  0  0  0
 41 78  1  0  0  0  0
 41 79  1  0  0  0  0
 42 80  1  0  0  0  0
 42 81  1  0  0  0  0
 43 82  1  0  0  0  0
 44 83  1  0  0  0  0
M  END
$$$$
