CHEMBL240608
 OpenBabel04072215363D

 47 49  0  0  0  0  0  0  0  0999 V2000
    0.6021    0.5241    0.3465 C   0  0  0  0  0  0  0  0  0  0  0  0
    0.3102    1.9210    0.4144 O   0  0  0  0  0  0  0  0  0  0  0  0
    1.0410    2.7186   -0.4332 C   0  0  0  0  0  0  0  0  0  0  0  0
    1.5388    2.2073   -1.6386 C   0  0  0  0  0  0  0  0  0  0  0  0
    2.2796    3.0044   -2.4975 C   0  0  0  0  0  0  0  0  0  0  0  0
    2.5315    4.3388   -2.1974 C   0  0  0  0  0  0  0  0  0  0  0  0
    3.3272    5.1378   -3.0409 N   0  0  0  0  0  0  0  0  0  0  0  0
    4.2340    4.6426   -3.9715 C   0  0  0  0  0  0  0  0  0  0  0  0
    4.4949    3.4555   -4.1366 O   0  0  0  0  0  0  0  0  0  0  0  0
    4.9017    5.6357   -4.7758 C   0  0  0  0  0  0  0  0  0  0  0  0
    5.4688    5.4550   -6.0736 C   0  0  0  0  0  0  0  0  0  0  0  0
    5.5191    4.2436   -6.9335 C   0  0  0  0  0  0  0  0  0  0  0  0
    6.0038    6.5910   -6.5308 N   0  0  0  0  0  0  0  0  0  0  0  0
    5.8361    7.5135   -5.5229 O   0  0  0  0  0  0  0  0  0  0  0  0
    5.2145    6.9436   -4.4535 C   0  0  0  0  0  0  0  0  0  0  0  0
    5.0471    7.6878   -3.3324 N   0  0  0  0  0  0  0  0  0  0  0  0
    5.8753    8.8692   -3.1193 C   0  0  0  0  0  0  0  0  0  0  0  0
    7.0537    8.5870   -2.2155 C   0  0  0  0  0  0  0  0  0  0  0  0
    8.0542    7.6613   -2.5445 C   0  0  0  0  0  0  0  0  0  0  0  0
    9.1496    7.5336   -1.7025 C   0  0  0  0  0  0  0  0  0  0  0  0
    9.3213    8.2527   -0.5729 N   0  0  0  0  0  0  0  0  0  0  0  0
    8.3531    9.1392   -0.2695 C   0  0  0  0  0  0  0  0  0  0  0  0
    7.2201    9.3349   -1.0433 C   0  0  0  0  0  0  0  0  0  0  0  0
    1.9620    4.8854   -1.0422 C   0  0  0  0  0  0  0  0  0  0  0  0
    1.2400    4.0767   -0.1411 C   0  0  0  0  0  0  0  0  0  0  0  0
    0.7809    4.7549    0.9577 O   0  0  0  0  0  0  0  0  0  0  0  0
    0.6792    4.0250    2.1760 C   0  0  0  0  0  0  0  0  0  0  0  0
    0.0317    0.0158    1.1257 H   0  0  0  0  0  0  0  0  0  0  0  0
    1.6685    0.3422    0.5251 H   0  0  0  0  0  0  0  0  0  0  0  0
    0.2869    0.0889   -0.6084 H   0  0  0  0  0  0  0  0  0  0  0  0
    1.3597    1.1901   -1.9643 H   0  0  0  0  0  0  0  0  0  0  0  0
    2.6195    2.5444   -3.4214 H   0  0  0  0  0  0  0  0  0  0  0  0
    3.2414    6.1402   -2.9453 H   0  0  0  0  0  0  0  0  0  0  0  0
    5.2143    3.3343   -6.4093 H   0  0  0  0  0  0  0  0  0  0  0  0
    6.5390    4.0760   -7.2976 H   0  0  0  0  0  0  0  0  0  0  0  0
    4.8616    4.3650   -7.7982 H   0  0  0  0  0  0  0  0  0  0  0  0
    4.7845    7.2490   -2.4554 H   0  0  0  0  0  0  0  0  0  0  0  0
    5.2322    9.6205   -2.6452 H   0  0  0  0  0  0  0  0  0  0  0  0
    6.2316    9.3275   -4.0492 H   0  0  0  0  0  0  0  0  0  0  0  0
    8.0007    7.0607   -3.4473 H   0  0  0  0  0  0  0  0  0  0  0  0
    9.9541    6.8380   -1.9274 H   0  0  0  0  0  0  0  0  0  0  0  0
    8.5201    9.7216    0.6315 H   0  0  0  0  0  0  0  0  0  0  0  0
    6.4939   10.0819   -0.7404 H   0  0  0  0  0  0  0  0  0  0  0  0
    2.1087    5.9365   -0.7945 H   0  0  0  0  0  0  0  0  0  0  0  0
    0.5454    4.7485    2.9879 H   0  0  0  0  0  0  0  0  0  0  0  0
    1.5936    3.4603    2.3868 H   0  0  0  0  0  0  0  0  0  0  0  0
   -0.2046    3.3821    2.1846 H   0  0  0  0  0  0  0  0  0  0  0  0
  1  2  1  0  0  0  0
  1 28  1  0  0  0  0
  1 29  1  0  0  0  0
  1 30  1  0  0  0  0
  2  3  1  0  0  0  0
  3  4  1  0  0  0  0
  3 25  2  0  0  0  0
  4  5  2  0  0  0  0
  4 31  1  0  0  0  0
  5  6  1  0  0  0  0
  5 32  1  0  0  0  0
  6  7  1  0  0  0  0
  6 24  2  0  0  0  0
  7  8  1  0  0  0  0
  7 33  1  0  0  0  0
  8  9  2  0  0  0  0
  8 10  1  0  0  0  0
 10 11  1  0  0  0  0
 10 15  2  0  0  0  0
 11 12  1  0  0  0  0
 11 13  2  0  0  0  0
 12 34  1  0  0  0  0
 12 35  1  0  0  0  0
 12 36  1  0  0  0  0
 13 14  1  0  0  0  0
 14 15  1  0  0  0  0
 15 16  1  0  0  0  0
 16 17  1  0  0  0  0
 16 37  1  0  0  0  0
 17 18  1  0  0  0  0
 17 38  1  0  0  0  0
 17 39  1  0  0  0  0
 18 19  1  0  0  0  0
 18 23  2  0  0  0  0
 19 20  2  0  0  0  0
 19 40  1  0  0  0  0
 20 21  1  0  0  0  0
 20 41  1  0  0  0  0
 21 22  2  0  0  0  0
 22 23  1  0  0  0  0
 22 42  1  0  0  0  0
 23 43  1  0  0  0  0
 24 25  1  0  0  0  0
 24 44  1  0  0  0  0
 25 26  1  0  0  0  0
 26 27  1  0  0  0  0
 27 45  1  0  0  0  0
 27 46  1  0  0  0  0
 27 47  1  0  0  0  0
M  END
$$$$
