CHEMBL45651
 OpenBabel04072215383D

 78 83  0  0  1  0  0  0  0  0999 V2000
    0.8028    3.2505   -0.2922 C   0  0  0  0  0  0  0  0  0  0  0  0
    0.2978    4.5879   -0.1970 O   0  0  0  0  0  0  0  0  0  0  0  0
    0.7353    5.4493   -1.1779 C   0  0  0  0  0  0  0  0  0  0  0  0
    1.4400    5.0180   -2.3121 C   0  0  0  0  0  0  0  0  0  0  0  0
    1.9086    5.9237   -3.2733 C   0  0  0  0  0  0  0  0  0  0  0  0
    2.7290    5.4521   -4.3731 C   0  0  0  0  0  0  0  0  0  0  0  0
    2.4558    4.2584   -4.9154 N   0  0  0  0  0  0  0  0  0  0  0  0
    3.3154    4.1595   -5.9377 N   0  0  0  0  0  0  0  0  0  0  0  0
    3.1981    3.0379   -6.8596 C   0  0  1  0  0  0  0  0  0  0  0  0
    3.9909    1.8375   -6.3411 C   0  0  0  0  0  0  0  0  0  0  0  0
    3.2193    0.9606   -5.3632 C   0  0  0  0  0  0  0  0  0  0  0  0
    1.8470    0.4930   -5.8904 C   0  0  2  0  0  0  0  0  0  0  0  0
    1.8084   -0.6223   -6.8506 N   0  0  0  0  0  0  0  0  0  0  0  0
    2.8162   -1.6822   -6.7244 C   0  0  0  0  0  0  0  0  0  0  0  0
    4.0864   -1.4714   -7.5889 C   0  0  0  0  0  0  0  0  0  0  0  0
    3.8372   -1.0712   -8.9896 N   0  0  0  0  0  0  0  0  0  0  0  0
    5.0526   -0.5287   -9.6005 C   0  0  0  0  0  0  0  0  0  0  0  0
    2.7340   -0.1057   -9.1311 C   0  0  0  0  0  0  0  0  0  0  0  0
    1.5008   -0.4107   -8.2617 C   0  0  0  0  0  0  0  0  0  0  0  0
    1.0249    1.7495   -6.2547 C   0  0  0  0  0  0  0  0  0  0  0  0
    1.7270    2.7273   -7.2073 C   0  0  0  0  0  0  0  0  0  0  0  0
    4.2276    5.1755   -5.9891 C   0  0  0  0  0  0  0  0  0  0  0  0
    5.2526    5.3050   -6.8492 N   0  0  0  0  0  0  0  0  0  0  0  0
    5.9378    6.4368   -6.6212 C   0  0  0  0  0  0  0  0  0  0  0  0
    5.7066    7.3720   -5.6810 N   0  0  0  0  0  0  0  0  0  0  0  0
    4.6683    7.1984   -4.8367 C   0  0  0  0  0  0  0  0  0  0  0  0
    4.4893    8.1849   -3.8804 N   0  0  0  0  0  0  0  0  0  0  0  0
    3.8715    6.0537   -4.9790 C   0  0  0  0  0  0  0  0  0  0  0  0
    1.5944    7.2639   -3.1516 C   0  0  0  0  0  0  0  0  0  0  0  0
    0.9223    7.7062   -2.0224 C   0  0  0  0  0  0  0  0  0  0  0  0
    0.4628    6.8221   -1.0296 C   0  0  0  0  0  0  0  0  0  0  0  0
   -0.2378    7.3169    0.1139 N   0  0  0  0  0  0  0  0  0  0  0  0
   -0.8544    8.5585    0.1256 C   0  0  0  0  0  0  0  0  0  0  0  0
   -0.9911    9.2312   -0.8932 O   0  0  0  0  0  0  0  0  0  0  0  0
   -1.2418    8.9984    1.3780 N   0  0  0  0  0  0  0  0  0  0  0  0
   -1.8023   10.2903    1.6081 C   0  0  0  0  0  0  0  0  0  0  0  0
   -2.3263   11.0831    0.5681 C   0  0  0  0  0  0  0  0  0  0  0  0
   -2.7430   12.3895    0.7800 C   0  0  0  0  0  0  0  0  0  0  0  0
   -2.6927   12.9193    2.0651 C   0  0  0  0  0  0  0  0  0  0  0  0
   -2.2510   12.1315    3.1212 C   0  0  0  0  0  0  0  0  0  0  0  0
   -1.8085   10.8206    2.8990 C   0  0  0  0  0  0  0  0  0  0  0  0
    0.4729    2.6891    0.5853 H   0  0  0  0  0  0  0  0  0  0  0  0
    1.9001    3.2441   -0.2938 H   0  0  0  0  0  0  0  0  0  0  0  0
    0.4098    2.7351   -1.1776 H   0  0  0  0  0  0  0  0  0  0  0  0
    1.6516    3.9665   -2.4846 H   0  0  0  0  0  0  0  0  0  0  0  0
    3.6791    3.3860   -7.7834 H   0  0  0  0  0  0  0  0  0  0  0  0
    4.9270    2.1587   -5.8669 H   0  0  0  0  0  0  0  0  0  0  0  0
    4.2970    1.2489   -7.2012 H   0  0  0  0  0  0  0  0  0  0  0  0
    3.0546    1.5319   -4.4390 H   0  0  0  0  0  0  0  0  0  0  0  0
    3.8402    0.1153   -5.0498 H   0  0  0  0  0  0  0  0  0  0  0  0
    1.3396    0.0723   -5.0094 H   0  0  0  0  0  0  0  0  0  0  0  0
    2.3489   -2.6224   -7.0480 H   0  0  0  0  0  0  0  0  0  0  0  0
    3.0887   -1.8570   -5.6771 H   0  0  0  0  0  0  0  0  0  0  0  0
    4.6514   -2.4113   -7.5980 H   0  0  0  0  0  0  0  0  0  0  0  0
    4.7345   -0.7493   -7.0844 H   0  0  0  0  0  0  0  0  0  0  0  0
    5.8438   -1.2836   -9.6287 H   0  0  0  0  0  0  0  0  0  0  0  0
    5.4329    0.3462   -9.0582 H   0  0  0  0  0  0  0  0  0  0  0  0
    4.8623   -0.2189  -10.6344 H   0  0  0  0  0  0  0  0  0  0  0  0
    2.4117   -0.0952  -10.1796 H   0  0  0  0  0  0  0  0  0  0  0  0
    3.0874    0.9045   -8.9156 H   0  0  0  0  0  0  0  0  0  0  0  0
    1.0446   -1.3358   -8.6426 H   0  0  0  0  0  0  0  0  0  0  0  0
    0.7220    0.3406   -8.4173 H   0  0  0  0  0  0  0  0  0  0  0  0
    0.7909    2.2799   -5.3220 H   0  0  0  0  0  0  0  0  0  0  0  0
    0.0439    1.4727   -6.6593 H   0  0  0  0  0  0  0  0  0  0  0  0
    1.1440    3.6570   -7.2501 H   0  0  0  0  0  0  0  0  0  0  0  0
    1.6846    2.3353   -8.2252 H   0  0  0  0  0  0  0  0  0  0  0  0
    6.7883    6.6206   -7.2702 H   0  0  0  0  0  0  0  0  0  0  0  0
    5.2965    8.7955   -3.8324 H   0  0  0  0  0  0  0  0  0  0  0  0
    4.1224    7.8708   -2.9913 H   0  0  0  0  0  0  0  0  0  0  0  0
    1.8739    7.9889   -3.9120 H   0  0  0  0  0  0  0  0  0  0  0  0
    0.7881    8.7806   -1.9522 H   0  0  0  0  0  0  0  0  0  0  0  0
   -0.5254    6.6223    0.7896 H   0  0  0  0  0  0  0  0  0  0  0  0
   -0.8669    8.5076    2.1743 H   0  0  0  0  0  0  0  0  0  0  0  0
   -2.4144   10.7191   -0.4496 H   0  0  0  0  0  0  0  0  0  0  0  0
   -3.0888   12.9925   -0.0584 H   0  0  0  0  0  0  0  0  0  0  0  0
   -3.0113   13.9463    2.2286 H   0  0  0  0  0  0  0  0  0  0  0  0
   -2.2390   12.5510    4.1246 H   0  0  0  0  0  0  0  0  0  0  0  0
   -1.4443   10.2446    3.7431 H   0  0  0  0  0  0  0  0  0  0  0  0
  1  2  1  0  0  0  0
  1 42  1  0  0  0  0
  1 43  1  0  0  0  0
  1 44  1  0  0  0  0
  2  3  1  0  0  0  0
  3  4  1  0  0  0  0
  3 31  2  0  0  0  0
  4  5  2  0  0  0  0
  4 45  1  0  0  0  0
  5  6  1  0  0  0  0
  5 29  1  0  0  0  0
  6  7  2  0  0  0  0
  6 28  1  0  0  0  0
  7  8  1  0  0  0  0
  8 22  1  0  0  0  0
  9 10  1  0  0  0  0
  9 21  1  0  0  0  0
  9  8  1  0  0  0  0
  9 46  1  6  0  0  0
 10 11  1  0  0  0  0
 10 47  1  0  0  0  0
 10 48  1  0  0  0  0
 11 12  1  0  0  0  0
 11 49  1  0  0  0  0
 11 50  1  0  0  0  0
 12 20  1  0  0  0  0
 12 13  1  0  0  0  0
 12 51  1  1  0  0  0
 13 14  1  0  0  0  0
 13 19  1  0  0  0  0
 14 15  1  0  0  0  0
 14 52  1  0  0  0  0
 14 53  1  0  0  0  0
 15 16  1  0  0  0  0
 15 54  1  0  0  0  0
 15 55  1  0  0  0  0
 16 17  1  0  0  0  0
 16 18  1  0  0  0  0
 17 56  1  0  0  0  0
 17 57  1  0  0  0  0
 17 58  1  0  0  0  0
 18 19  1  0  0  0  0
 18 59  1  0  0  0  0
 18 60  1  0  0  0  0
 19 61  1  0  0  0  0
 19 62  1  0  0  0  0
 20 21  1  0  0  0  0
 20 63  1  0  0  0  0
 20 64  1  0  0  0  0
 21 65  1  0  0  0  0
 21 66  1  0  0  0  0
 22 23  1  0  0  0  0
 22 28  2  0  0  0  0
 23 24  2  0  0  0  0
 24 25  1  0  0  0  0
 24 67  1  0  0  0  0
 25 26  2  0  0  0  0
 26 27  1  0  0  0  0
 26 28  1  0  0  0  0
 27 68  1  0  0  0  0
 27 69  1  0  0  0  0
 29 30  2  0  0  0  0
 29 70  1  0  0  0  0
 30 31  1  0  0  0  0
 30 71  1  0  0  0  0
 31 32  1  0  0  0  0
 32 33  1  0  0  0  0
 32 72  1  0  0  0  0
 33 34  2  0  0  0  0
 33 35  1  0  0  0  0
 35 36  1  0  0  0  0
 35 73  1  0  0  0  0
 36 37  1  0  0  0  0
 36 41  2  0  0  0  0
 37 38  2  0  0  0  0
 37 74  1  0  0  0  0
 38 39  1  0  0  0  0
 38 75  1  0  0  0  0
 39 40  2  0  0  0  0
 39 76  1  0  0  0  0
 40 41  1  0  0  0  0
 40 77  1  0  0  0  0
 41 78  1  0  0  0  0
M  END
$$$$
