CHEMBL3660294
 OpenBabel04072215373D

 52 55  0  0  0  0  0  0  0  0999 V2000
    2.7965    0.8035   -2.4343 C   0  0  0  0  0  0  0  0  0  0  0  0
    1.3944    0.5295   -1.9714 C   0  0  0  0  0  0  0  0  0  0  0  0
    0.8831   -0.7701   -2.0437 C   0  0  0  0  0  0  0  0  0  0  0  0
   -0.3993   -1.0371   -1.5831 C   0  0  0  0  0  0  0  0  0  0  0  0
   -1.1844   -0.0098   -1.0666 C   0  0  0  0  0  0  0  0  0  0  0  0
   -2.3452   -0.3833   -0.5146 F   0  0  0  0  0  0  0  0  0  0  0  0
   -0.7323    1.3193   -1.0414 C   0  0  0  0  0  0  0  0  0  0  0  0
   -1.5118    2.4321   -0.6165 N   0  0  0  0  0  0  0  0  0  0  0  0
   -2.8924    2.4513   -0.5484 C   0  0  0  0  0  0  0  0  0  0  0  0
   -3.6285    1.5273   -0.8703 O   0  0  0  0  0  0  0  0  0  0  0  0
   -3.3969    3.6828   -0.1354 N   0  0  0  0  0  0  0  0  0  0  0  0
   -4.7979    3.7997    0.0578 C   0  0  0  0  0  0  0  0  0  0  0  0
   -5.4796    2.8660    0.8465 C   0  0  0  0  0  0  0  0  0  0  0  0
   -6.8704    2.8978    0.9401 C   0  0  0  0  0  0  0  0  0  0  0  0
   -7.5897    3.9024    0.2916 C   0  0  0  0  0  0  0  0  0  0  0  0
   -8.9631    4.0125    0.3278 O   0  0  0  0  0  0  0  0  0  0  0  0
   -9.6424    3.6258    1.4626 C   0  0  0  0  0  0  0  0  0  0  0  0
   -9.1666    3.8125    2.7559 C   0  0  0  0  0  0  0  0  0  0  0  0
   -9.9354    3.3425    3.8054 C   0  0  0  0  0  0  0  0  0  0  0  0
  -11.1438    2.7594    3.6514 N   0  0  0  0  0  0  0  0  0  0  0  0
  -11.6097    2.6472    2.3852 C   0  0  0  0  0  0  0  0  0  0  0  0
  -12.9354    2.0418    2.2865 C   0  0  0  0  0  0  0  0  0  0  0  0
  -13.7536    1.7855    1.1975 C   0  0  0  0  0  0  0  0  0  0  0  0
  -14.9614    1.1751    1.6542 C   0  0  0  0  0  0  0  0  0  0  0  0
  -16.1373    0.7301    0.9093 C   0  0  0  0  0  0  0  0  0  0  0  0
  -17.1211    0.2278    1.4345 O   0  0  0  0  0  0  0  0  0  0  0  0
  -16.0738    0.9166   -0.4339 O   0  0  0  0  0  0  0  0  0  0  0  0
  -14.8265    1.0734    3.0286 C   0  0  0  0  0  0  0  0  0  0  0  0
  -13.6134    1.5900    3.3924 N   0  0  0  0  0  0  0  0  0  0  0  0
  -10.9005    3.0675    1.2706 C   0  0  0  0  0  0  0  0  0  0  0  0
   -6.9113    4.8326   -0.5021 C   0  0  0  0  0  0  0  0  0  0  0  0
   -5.5140    4.8001   -0.6005 C   0  0  0  0  0  0  0  0  0  0  0  0
    0.5832    1.5683   -1.4690 C   0  0  0  0  0  0  0  0  0  0  0  0
    3.2890   -0.1148   -2.7744 H   0  0  0  0  0  0  0  0  0  0  0  0
    3.3930    1.2125   -1.6131 H   0  0  0  0  0  0  0  0  0  0  0  0
    2.7910    1.5078   -3.2713 H   0  0  0  0  0  0  0  0  0  0  0  0
    1.4834   -1.5868   -2.4379 H   0  0  0  0  0  0  0  0  0  0  0  0
   -0.7997   -2.0460   -1.6005 H   0  0  0  0  0  0  0  0  0  0  0  0
   -1.0352    3.3104   -0.4880 H   0  0  0  0  0  0  0  0  0  0  0  0
   -2.9423    4.4755   -0.5622 H   0  0  0  0  0  0  0  0  0  0  0  0
   -4.9338    2.0828    1.3685 H   0  0  0  0  0  0  0  0  0  0  0  0
   -7.3691    2.1205    1.5118 H   0  0  0  0  0  0  0  0  0  0  0  0
   -8.2126    4.2870    2.9537 H   0  0  0  0  0  0  0  0  0  0  0  0
   -9.5836    3.4220    4.8298 H   0  0  0  0  0  0  0  0  0  0  0  0
  -13.4930    2.0296    0.1776 H   0  0  0  0  0  0  0  0  0  0  0  0
  -15.2382    1.3189   -0.7232 H   0  0  0  0  0  0  0  0  0  0  0  0
  -15.5006    0.6692    3.7732 H   0  0  0  0  0  0  0  0  0  0  0  0
  -13.2411    1.6477    4.3373 H   0  0  0  0  0  0  0  0  0  0  0  0
  -11.3000    2.9621    0.2693 H   0  0  0  0  0  0  0  0  0  0  0  0
   -7.4749    5.5710   -1.0672 H   0  0  0  0  0  0  0  0  0  0  0  0
   -5.0140    5.5089   -1.2533 H   0  0  0  0  0  0  0  0  0  0  0  0
    0.9873    2.5779   -1.4410 H   0  0  0  0  0  0  0  0  0  0  0  0
  1  2  1  0  0  0  0
  1 34  1  0  0  0  0
  1 35  1  0  0  0  0
  1 36  1  0  0  0  0
  2  3  1  0  0  0  0
  2 33  2  0  0  0  0
  3  4  2  0  0  0  0
  3 37  1  0  0  0  0
  4  5  1  0  0  0  0
  4 38  1  0  0  0  0
  5  6  1  0  0  0  0
  5  7  2  0  0  0  0
  7  8  1  0  0  0  0
  7 33  1  0  0  0  0
  8  9  1  0  0  0  0
  8 39  1  0  0  0  0
  9 10  2  0  0  0  0
  9 11  1  0  0  0  0
 11 12  1  0  0  0  0
 11 40  1  0  0  0  0
 12 13  1  0  0  0  0
 12 32  2  0  0  0  0
 13 14  2  0  0  0  0
 13 41  1  0  0  0  0
 14 15  1  0  0  0  0
 14 42  1  0  0  0  0
 15 16  1  0  0  0  0
 15 31  2  0  0  0  0
 16 17  1  0  0  0  0
 17 18  1  0  0  0  0
 17 30  2  0  0  0  0
 18 19  2  0  0  0  0
 18 43  1  0  0  0  0
 19 20  1  0  0  0  0
 19 44  1  0  0  0  0
 20 21  2  0  0  0  0
 21 22  1  0  0  0  0
 21 30  1  0  0  0  0
 22 23  2  0  0  0  0
 22 29  1  0  0  0  0
 23 24  1  0  0  0  0
 23 45  1  0  0  0  0
 24 25  1  0  0  0  0
 24 28  2  0  0  0  0
 25 26  2  0  0  0  0
 25 27  1  0  0  0  0
 27 46  1  0  0  0  0
 28 29  1  0  0  0  0
 28 47  1  0  0  0  0
 29 48  1  0  0  0  0
 30 49  1  0  0  0  0
 31 32  1  0  0  0  0
 31 50  1  0  0  0  0
 32 51  1  0  0  0  0
 33 52  1  0  0  0  0
M  END
$$$$
