CHEMBL223360
 OpenBabel04072215363D

 46 49  0  0  0  0  0  0  0  0999 V2000
    2.8259    0.8968   -2.4228 C   0  0  0  0  0  0  0  0  0  0  0  0
    1.4204    0.6131   -1.9751 C   0  0  0  0  0  0  0  0  0  0  0  0
    0.9260   -0.6900   -2.0752 C   0  0  0  0  0  0  0  0  0  0  0  0
   -0.3606   -0.9753   -1.6376 C   0  0  0  0  0  0  0  0  0  0  0  0
   -1.1624    0.0322   -1.1088 C   0  0  0  0  0  0  0  0  0  0  0  0
   -2.3288   -0.3697   -0.5889 F   0  0  0  0  0  0  0  0  0  0  0  0
   -0.7262    1.3620   -1.0407 C   0  0  0  0  0  0  0  0  0  0  0  0
   -1.5245    2.4587   -0.5779 N   0  0  0  0  0  0  0  0  0  0  0  0
   -2.8956    2.4580   -0.4596 C   0  0  0  0  0  0  0  0  0  0  0  0
   -3.6454    1.5269   -0.7573 O   0  0  0  0  0  0  0  0  0  0  0  0
   -3.4012    3.6867   -0.0319 N   0  0  0  0  0  0  0  0  0  0  0  0
   -4.8004    3.8250    0.1250 C   0  0  0  0  0  0  0  0  0  0  0  0
   -5.5355    2.9442    0.9212 C   0  0  0  0  0  0  0  0  0  0  0  0
   -6.9336    3.0173    0.9799 C   0  0  0  0  0  0  0  0  0  0  0  0
   -7.6447    3.9801    0.2478 C   0  0  0  0  0  0  0  0  0  0  0  0
   -9.1294    4.0291    0.2511 C   0  0  0  0  0  0  0  0  0  0  0  0
   -9.8971    3.6728    1.3886 C   0  0  0  0  0  0  0  0  0  0  0  0
  -11.2842    3.8409    1.4418 C   0  0  0  0  0  0  0  0  0  0  0  0
  -11.9692    4.4499    0.3938 C   0  0  0  0  0  0  0  0  0  0  0  0
  -11.2208    4.7738   -0.7396 C   0  0  0  0  0  0  0  0  0  0  0  0
  -11.5686    5.4256   -1.8926 N   0  0  0  0  0  0  0  0  0  0  0  0
  -10.6370    5.3780   -2.8531 N   0  0  0  0  0  0  0  0  0  0  0  0
   -9.6143    4.7666   -2.2640 C   0  0  0  0  0  0  0  0  0  0  0  0
   -8.4956    4.4515   -2.9285 N   0  0  0  0  0  0  0  0  0  0  0  0
   -9.8618    4.4935   -0.8796 C   0  0  0  0  0  0  0  0  0  0  0  0
   -6.8699    4.9162   -0.4687 C   0  0  0  0  0  0  0  0  0  0  0  0
   -5.4749    4.8345   -0.5574 C   0  0  0  0  0  0  0  0  0  0  0  0
    0.5913    1.6348   -1.4606 C   0  0  0  0  0  0  0  0  0  0  0  0
    3.3218   -0.0178   -2.7668 H   0  0  0  0  0  0  0  0  0  0  0  0
    3.4148    1.2945   -1.5925 H   0  0  0  0  0  0  0  0  0  0  0  0
    2.8295    1.6051   -3.2535 H   0  0  0  0  0  0  0  0  0  0  0  0
    1.5354   -1.4918   -2.4816 H   0  0  0  0  0  0  0  0  0  0  0  0
   -0.7533   -1.9886   -1.6824 H   0  0  0  0  0  0  0  0  0  0  0  0
   -1.0457    3.3342   -0.4233 H   0  0  0  0  0  0  0  0  0  0  0  0
   -2.9243    4.4839   -0.4284 H   0  0  0  0  0  0  0  0  0  0  0  0
   -5.0235    2.1675    1.4920 H   0  0  0  0  0  0  0  0  0  0  0  0
   -7.4548    2.2872    1.5921 H   0  0  0  0  0  0  0  0  0  0  0  0
   -9.4074    3.2711    2.2736 H   0  0  0  0  0  0  0  0  0  0  0  0
  -11.8292    3.5289    2.3307 H   0  0  0  0  0  0  0  0  0  0  0  0
  -13.0369    4.6353    0.4520 H   0  0  0  0  0  0  0  0  0  0  0  0
  -12.4309    5.9198   -2.0863 H   0  0  0  0  0  0  0  0  0  0  0  0
   -8.4114    4.6659   -3.9126 H   0  0  0  0  0  0  0  0  0  0  0  0
   -7.7778    3.8485   -2.5410 H   0  0  0  0  0  0  0  0  0  0  0  0
   -7.3564    5.7150   -1.0293 H   0  0  0  0  0  0  0  0  0  0  0  0
   -4.9519    5.5131   -1.2203 H   0  0  0  0  0  0  0  0  0  0  0  0
    0.9845    2.6488   -1.4145 H   0  0  0  0  0  0  0  0  0  0  0  0
  1  2  1  0  0  0  0
  1 29  1  0  0  0  0
  1 30  1  0  0  0  0
  1 31  1  0  0  0  0
  2  3  1  0  0  0  0
  2 28  2  0  0  0  0
  3  4  2  0  0  0  0
  3 32  1  0  0  0  0
  4  5  1  0  0  0  0
  4 33  1  0  0  0  0
  5  6  1  0  0  0  0
  5  7  2  0  0  0  0
  7  8  1  0  0  0  0
  7 28  1  0  0  0  0
  8  9  1  0  0  0  0
  8 34  1  0  0  0  0
  9 10  2  0  0  0  0
  9 11  1  0  0  0  0
 11 12  1  0  0  0  0
 11 35  1  0  0  0  0
 12 13  1  0  0  0  0
 12 27  2  0  0  0  0
 13 14  2  0  0  0  0
 13 36  1  0  0  0  0
 14 15  1  0  0  0  0
 14 37  1  0  0  0  0
 15 16  1  0  0  0  0
 15 26  2  0  0  0  0
 16 17  1  0  0  0  0
 16 25  2  0  0  0  0
 17 18  2  0  0  0  0
 17 38  1  0  0  0  0
 18 19  1  0  0  0  0
 18 39  1  0  0  0  0
 19 20  2  0  0  0  0
 19 40  1  0  0  0  0
 20 21  1  0  0  0  0
 20 25  1  0  0  0  0
 21 22  1  0  0  0  0
 21 41  1  0  0  0  0
 22 23  2  0  0  0  0
 23 24  1  0  0  0  0
 23 25  1  0  0  0  0
 24 42  1  0  0  0  0
 24 43  1  0  0  0  0
 26 27  1  0  0  0  0
 26 44  1  0  0  0  0
 27 45  1  0  0  0  0
 28 46  1  0  0  0  0
M  END
$$$$
