CHEMBL3958507
 OpenBabel04072215373D

 71 75  0  0  0  0  0  0  0  0999 V2000
    1.3650    2.5503    0.3540 C   0  0  0  0  0  0  0  0  0  0  0  0
    1.5064    1.2732    0.9772 O   0  0  0  0  0  0  0  0  0  0  0  0
    2.3667    0.4030    0.3700 C   0  0  0  0  0  0  0  0  0  0  0  0
    3.5513    0.8366   -0.2371 C   0  0  0  0  0  0  0  0  0  0  0  0
    4.3680   -0.0561   -0.9779 C   0  0  0  0  0  0  0  0  0  0  0  0
    5.5209    0.3187   -1.6904 C   0  0  0  0  0  0  0  0  0  0  0  0
    5.9857    1.6644   -1.6248 N   0  0  0  0  0  0  0  0  0  0  0  0
    6.9368    2.2124   -2.5168 C   0  0  0  0  0  0  0  0  0  0  0  0
    6.7762    2.0702   -3.9023 C   0  0  0  0  0  0  0  0  0  0  0  0
    7.7458    2.5353   -4.7923 C   0  0  0  0  0  0  0  0  0  0  0  0
    8.8940    3.1594   -4.3063 C   0  0  0  0  0  0  0  0  0  0  0  0
   10.0819    3.6624   -5.4549 Cl  0  0  0  0  0  0  0  0  0  0  0  0
    9.0504    3.3442   -2.9281 C   0  0  0  0  0  0  0  0  0  0  0  0
   10.4440    4.1156   -2.2546 Cl  0  0  0  0  0  0  0  0  0  0  0  0
    8.0689    2.8829   -2.0389 C   0  0  0  0  0  0  0  0  0  0  0  0
    6.2036   -0.5580   -2.4504 N   0  0  0  0  0  0  0  0  0  0  0  0
    5.7546   -1.8136   -2.4728 C   0  0  0  0  0  0  0  0  0  0  0  0
    4.6882   -2.2822   -1.8101 N   0  0  0  0  0  0  0  0  0  0  0  0
    4.0012   -1.3998   -1.0777 C   0  0  0  0  0  0  0  0  0  0  0  0
    2.8631   -1.8295   -0.3989 C   0  0  0  0  0  0  0  0  0  0  0  0
    2.0495   -0.9570    0.3408 C   0  0  0  0  0  0  0  0  0  0  0  0
    0.9290   -1.5452    0.8634 O   0  0  0  0  0  0  0  0  0  0  0  0
    0.4325   -1.0776    2.1351 C   0  0  0  0  0  0  0  0  0  0  0  0
   -0.6704   -1.9847    2.5932 C   0  0  0  0  0  0  0  0  0  0  0  0
   -1.9666   -1.7102    2.3761 N   0  0  0  0  0  0  0  0  0  0  0  0
   -2.5708   -2.9702    2.4343 O   0  0  0  0  0  0  0  0  0  0  0  0
   -1.5649   -3.8664    2.6774 C   0  0  0  0  0  0  0  0  0  0  0  0
   -1.7530   -5.2215    2.0690 C   0  0  0  0  0  0  0  0  0  0  0  0
   -1.2344   -6.3843    2.9221 C   0  0  0  0  0  0  0  0  0  0  0  0
    0.2903   -6.5005    2.9465 C   0  0  0  0  0  0  0  0  0  0  0  0
    0.8583   -6.3961    1.6076 N   0  0  0  0  0  0  0  0  0  0  0  0
    1.8903   -7.2293    1.2220 C   0  0  0  0  0  0  0  0  0  0  0  0
    2.3000   -8.1603    1.9019 O   0  0  0  0  0  0  0  0  0  0  0  0
    2.3745   -6.8952   -0.0025 O   0  0  0  0  0  0  0  0  0  0  0  0
    3.4508   -7.6401   -0.6166 C   0  0  0  0  0  0  0  0  0  0  0  0
    3.0138   -9.0787   -0.9086 C   0  0  0  0  0  0  0  0  0  0  0  0
    3.7192   -6.9268   -1.9523 C   0  0  0  0  0  0  0  0  0  0  0  0
    4.7226   -7.5687    0.2330 C   0  0  0  0  0  0  0  0  0  0  0  0
    0.4628   -5.2357    0.8257 C   0  0  0  0  0  0  0  0  0  0  0  0
   -1.0572   -5.2050    0.6914 C   0  0  0  0  0  0  0  0  0  0  0  0
   -0.4214   -3.2838    2.9621 N   0  0  0  0  0  0  0  0  0  0  0  0
    0.3009    2.8046    0.3394 H   0  0  0  0  0  0  0  0  0  0  0  0
    1.7179    2.5861   -0.6832 H   0  0  0  0  0  0  0  0  0  0  0  0
    1.8918    3.2965    0.9557 H   0  0  0  0  0  0  0  0  0  0  0  0
    3.8288    1.8836   -0.1804 H   0  0  0  0  0  0  0  0  0  0  0  0
    6.1853    1.8918   -0.6551 H   0  0  0  0  0  0  0  0  0  0  0  0
    5.8928    1.5711   -4.2956 H   0  0  0  0  0  0  0  0  0  0  0  0
    7.6028    2.3879   -5.8597 H   0  0  0  0  0  0  0  0  0  0  0  0
    8.2151    3.0186   -0.9708 H   0  0  0  0  0  0  0  0  0  0  0  0
    6.3049   -2.5160   -3.0899 H   0  0  0  0  0  0  0  0  0  0  0  0
    2.5857   -2.8798   -0.4708 H   0  0  0  0  0  0  0  0  0  0  0  0
    0.0160   -0.0730    2.0412 H   0  0  0  0  0  0  0  0  0  0  0  0
    1.2403   -1.0867    2.8756 H   0  0  0  0  0  0  0  0  0  0  0  0
   -2.8284   -5.3749    1.9093 H   0  0  0  0  0  0  0  0  0  0  0  0
   -1.6273   -7.3142    2.4860 H   0  0  0  0  0  0  0  0  0  0  0  0
   -1.6241   -6.3315    3.9452 H   0  0  0  0  0  0  0  0  0  0  0  0
    0.5699   -7.4549    3.4078 H   0  0  0  0  0  0  0  0  0  0  0  0
    0.7317   -5.7095    3.5626 H   0  0  0  0  0  0  0  0  0  0  0  0
    2.0977   -9.0889   -1.5114 H   0  0  0  0  0  0  0  0  0  0  0  0
    2.7862   -9.6339    0.0058 H   0  0  0  0  0  0  0  0  0  0  0  0
    3.7903   -9.6298   -1.4481 H   0  0  0  0  0  0  0  0  0  0  0  0
    2.8197   -6.9126   -2.5791 H   0  0  0  0  0  0  0  0  0  0  0  0
    4.5245   -7.4114   -2.5144 H   0  0  0  0  0  0  0  0  0  0  0  0
    3.9949   -5.8781   -1.7881 H   0  0  0  0  0  0  0  0  0  0  0  0
    4.6014   -8.0609    1.2016 H   0  0  0  0  0  0  0  0  0  0  0  0
    4.9842   -6.5254    0.4456 H   0  0  0  0  0  0  0  0  0  0  0  0
    5.5678   -8.0434   -0.2749 H   0  0  0  0  0  0  0  0  0  0  0  0
    0.9075   -5.2308   -0.1723 H   0  0  0  0  0  0  0  0  0  0  0  0
    0.8739   -4.3568    1.3297 H   0  0  0  0  0  0  0  0  0  0  0  0
   -1.3773   -6.0834    0.1180 H   0  0  0  0  0  0  0  0  0  0  0  0
   -1.3522   -4.3188    0.1158 H   0  0  0  0  0  0  0  0  0  0  0  0
  1  2  1  0  0  0  0
  1 42  1  0  0  0  0
  1 43  1  0  0  0  0
  1 44  1  0  0  0  0
  2  3  1  0  0  0  0
  3  4  1  0  0  0  0
  3 21  2  0  0  0  0
  4  5  2  0  0  0  0
  4 45  1  0  0  0  0
  5  6  1  0  0  0  0
  5 19  1  0  0  0  0
  6  7  1  0  0  0  0
  6 16  2  0  0  0  0
  7  8  1  0  0  0  0
  7 46  1  0  0  0  0
  8  9  1  0  0  0  0
  8 15  2  0  0  0  0
  9 10  2  0  0  0  0
  9 47  1  0  0  0  0
 10 11  1  0  0  0  0
 10 48  1  0  0  0  0
 11 12  1  0  0  0  0
 11 13  2  0  0  0  0
 13 14  1  0  0  0  0
 13 15  1  0  0  0  0
 15 49  1  0  0  0  0
 16 17  1  0  0  0  0
 17 18  2  0  0  0  0
 17 50  1  0  0  0  0
 18 19  1  0  0  0  0
 19 20  2  0  0  0  0
 20 21  1  0  0  0  0
 20 51  1  0  0  0  0
 21 22  1  0  0  0  0
 22 23  1  0  0  0  0
 23 24  1  0  0  0  0
 23 52  1  0  0  0  0
 23 53  1  0  0  0  0
 24 25  2  0  0  0  0
 24 41  1  0  0  0  0
 25 26  1  0  0  0  0
 26 27  1  0  0  0  0
 27 28  1  0  0  0  0
 27 41  2  0  0  0  0
 28 29  1  0  0  0  0
 28 40  1  0  0  0  0
 28 54  1  0  0  0  0
 29 30  1  0  0  0  0
 29 55  1  0  0  0  0
 29 56  1  0  0  0  0
 30 31  1  0  0  0  0
 30 57  1  0  0  0  0
 30 58  1  0  0  0  0
 31 32  1  0  0  0  0
 31 39  1  0  0  0  0
 32 33  2  0  0  0  0
 32 34  1  0  0  0  0
 34 35  1  0  0  0  0
 35 36  1  0  0  0  0
 35 37  1  0  0  0  0
 35 38  1  0  0  0  0
 36 59  1  0  0  0  0
 36 60  1  0  0  0  0
 36 61  1  0  0  0  0
 37 62  1  0  0  0  0
 37 63  1  0  0  0  0
 37 64  1  0  0  0  0
 38 65  1  0  0  0  0
 38 66  1  0  0  0  0
 38 67  1  0  0  0  0
 39 40  1  0  0  0  0
 39 68  1  0  0  0  0
 39 69  1  0  0  0  0
 40 70  1  0  0  0  0
 40 71  1  0  0  0  0
M  END
$$$$
