CHEMBL3948755
 OpenBabel04072215373D

 59 61  0  0  0  0  0  0  0  0999 V2000
    1.2449    5.1941   -1.0037 C   0  0  0  0  0  0  0  0  0  0  0  0
    2.5232    4.7218   -0.8516 O   0  0  0  0  0  0  0  0  0  0  0  0
    3.0151    3.5278   -0.4175 C   0  0  0  0  0  0  0  0  0  0  0  0
    2.2638    2.4247    0.0010 C   0  0  0  0  0  0  0  0  0  0  0  0
    2.9414    1.2571    0.4170 C   0  0  0  0  0  0  0  0  0  0  0  0
    2.2566    0.1876    0.8764 O   0  0  0  0  0  0  0  0  0  0  0  0
    4.3523    1.1878    0.3577 C   0  0  0  0  0  0  0  0  0  0  0  0
    5.1345    2.2891   -0.0866 C   0  0  0  0  0  0  0  0  0  0  0  0
    6.6055    2.2349   -0.1410 N   0  0  0  0  0  0  0  0  0  0  0  0
    7.3066    0.9448   -0.0168 C   0  0  0  0  0  0  0  0  0  0  0  0
    7.0230   -0.0350   -1.1717 C   0  0  0  0  0  0  0  0  0  0  0  0
    7.3968    0.4701   -2.5757 C   0  0  0  0  0  0  0  0  0  0  0  0
    7.1239   -0.6134   -3.5311 N   0  0  0  0  0  0  0  0  0  0  0  0
    7.4364   -0.2587   -4.9196 C   0  0  0  0  0  0  0  0  0  0  0  0
    7.1523   -1.4522   -5.8626 C   0  0  0  0  0  0  0  0  0  0  0  0
    6.7763   -2.5850   -5.1569 F   0  0  0  0  0  0  0  0  0  0  0  0
    6.1326   -1.1280   -6.7400 F   0  0  0  0  0  0  0  0  0  0  0  0
    8.2845   -1.7588   -6.5958 F   0  0  0  0  0  0  0  0  0  0  0  0
    7.4401    3.4385   -0.1404 C   0  0  0  0  0  0  0  0  0  0  0  0
    7.1574    4.5872   -0.9229 C   0  0  0  0  0  0  0  0  0  0  0  0
    7.8768    5.7663   -0.7908 C   0  0  0  0  0  0  0  0  0  0  0  0
    8.9807    5.8133    0.0350 C   0  0  0  0  0  0  0  0  0  0  0  0
    9.7055    6.9521    0.1265 N   0  0  0  0  0  0  0  0  0  0  0  0
   10.8450    6.9974    0.8515 C   0  0  0  0  0  0  0  0  0  0  0  0
   11.2933    5.8418    1.5119 C   0  0  0  0  0  0  0  0  0  0  0  0
   12.5863    5.8289    2.2107 C   0  0  0  0  0  0  0  0  0  0  0  0
   13.2100    4.7383    2.7723 C   0  0  0  0  0  0  0  0  0  0  0  0
   14.4044    5.1252    3.2623 N   0  0  0  0  0  0  0  0  0  0  0  0
   14.5497    6.4169    3.0194 N   0  0  0  0  0  0  0  0  0  0  0  0
   13.4675    6.8727    2.3688 C   0  0  0  0  0  0  0  0  0  0  0  0
   10.5364    4.7086    1.4577 N   0  0  0  0  0  0  0  0  0  0  0  0
    9.3822    4.6685    0.7398 C   0  0  0  0  0  0  0  0  0  0  0  0
    8.6053    3.5013    0.6765 C   0  0  0  0  0  0  0  0  0  0  0  0
    4.3924    3.4448   -0.4151 C   0  0  0  0  0  0  0  0  0  0  0  0
   -1.2114    1.7702    1.2952 Cl  0  0  0  0  0  0  0  0  0  0  0  0
    1.3326    6.2215   -1.4282 H   0  0  0  0  0  0  0  0  0  0  0  0
    0.7429    5.2724   -0.0214 H   0  0  0  0  0  0  0  0  0  0  0  0
    0.6718    4.5796   -1.7264 H   0  0  0  0  0  0  0  0  0  0  0  0
    1.1874    2.4815    0.0182 H   0  0  0  0  0  0  0  0  0  0  0  0
    1.2932    0.1765    0.9591 H   0  0  0  0  0  0  0  0  0  0  0  0
    4.8140    0.2698    0.6932 H   0  0  0  0  0  0  0  0  0  0  0  0
    7.0485    0.4621    0.9491 H   0  0  0  0  0  0  0  0  0  0  0  0
    8.4078    1.0671   -0.0340 H   0  0  0  0  0  0  0  0  0  0  0  0
    5.9564   -0.3274   -1.1759 H   0  0  0  0  0  0  0  0  0  0  0  0
    7.6230   -0.9530   -0.9769 H   0  0  0  0  0  0  0  0  0  0  0  0
    8.4770    0.7415   -2.6068 H   0  0  0  0  0  0  0  0  0  0  0  0
    6.7923    1.3694   -2.8287 H   0  0  0  0  0  0  0  0  0  0  0  0
    6.1080   -0.8572   -3.4767 H   0  0  0  0  0  0  0  0  0  0  0  0
    8.5085    0.0272   -5.0014 H   0  0  0  0  0  0  0  0  0  0  0  0
    6.8301    0.6200   -5.2369 H   0  0  0  0  0  0  0  0  0  0  0  0
    6.4033    4.6266   -1.6778 H   0  0  0  0  0  0  0  0  0  0  0  0
    7.5881    6.6403   -1.3608 H   0  0  0  0  0  0  0  0  0  0  0  0
   11.4093    7.9170    0.8708 H   0  0  0  0  0  0  0  0  0  0  0  0
   12.8334    3.7247    2.8143 H   0  0  0  0  0  0  0  0  0  0  0  0
   15.3901    6.9769    3.2883 H   0  0  0  0  0  0  0  0  0  0  0  0
   13.3525    7.9109    2.0433 H   0  0  0  0  0  0  0  0  0  0  0  0
    8.9190    2.6608    1.2825 H   0  0  0  0  0  0  0  0  0  0  0  0
    4.7924    4.3621   -0.6989 H   0  0  0  0  0  0  0  0  0  0  0  0
   -0.0178    1.8417    1.9783 H   0  0  0  0  0  0  0  0  0  0  0  0
  1  2  1  0  0  0  0
  1 36  1  0  0  0  0
  1 37  1  0  0  0  0
  1 38  1  0  0  0  0
  2  3  1  0  0  0  0
  3  4  1  0  0  0  0
  3 34  2  0  0  0  0
  4  5  2  0  0  0  0
  4 39  1  0  0  0  0
  5  6  1  0  0  0  0
  5  7  1  0  0  0  0
  6 40  1  0  0  0  0
  7  8  2  0  0  0  0
  7 41  1  0  0  0  0
  8  9  1  0  0  0  0
  8 34  1  0  0  0  0
  9 10  1  0  0  0  0
  9 19  1  0  0  0  0
 10 11  1  0  0  0  0
 10 42  1  0  0  0  0
 10 43  1  0  0  0  0
 11 12  1  0  0  0  0
 11 44  1  0  0  0  0
 11 45  1  0  0  0  0
 12 13  1  0  0  0  0
 12 46  1  0  0  0  0
 12 47  1  0  0  0  0
 13 14  1  0  0  0  0
 13 48  1  0  0  0  0
 14 15  1  0  0  0  0
 14 49  1  0  0  0  0
 14 50  1  0  0  0  0
 15 16  1  0  0  0  0
 15 17  1  0  0  0  0
 15 18  1  0  0  0  0
 19 20  1  0  0  0  0
 19 33  2  0  0  0  0
 20 21  2  0  0  0  0
 20 51  1  0  0  0  0
 21 22  1  0  0  0  0
 21 52  1  0  0  0  0
 22 23  1  0  0  0  0
 22 32  2  0  0  0  0
 23 24  2  0  0  0  0
 24 25  1  0  0  0  0
 24 53  1  0  0  0  0
 25 26  1  0  0  0  0
 25 31  2  0  0  0  0
 26 27  1  0  0  0  0
 26 30  2  0  0  0  0
 27 28  2  0  0  0  0
 27 54  1  0  0  0  0
 28 29  1  0  0  0  0
 29 30  1  0  0  0  0
 29 55  1  0  0  0  0
 30 56  1  0  0  0  0
 31 32  1  0  0  0  0
 32 33  1  0  0  0  0
 33 57  1  0  0  0  0
 34 58  1  0  0  0  0
 35 59  1  0  0  0  0
M  END
$$$$
