CHEMBL393418
 OpenBabel04072215373D

 46 49  0  0  0  0  0  0  0  0999 V2000
    2.1333    0.1146   -0.0431 C   0  0  0  0  0  0  0  0  0  0  0  0
    0.7061   -0.0529    0.0643 N   0  0  0  0  0  0  0  0  0  0  0  0
   -0.1802    0.9886    0.1228 C   0  0  0  0  0  0  0  0  0  0  0  0
   -1.4208    0.5672    0.1652 N   0  0  0  0  0  0  0  0  0  0  0  0
   -1.3293   -0.7867    0.0685 C   0  0  0  0  0  0  0  0  0  0  0  0
   -2.4119   -1.5705    0.0095 N   0  0  0  0  0  0  0  0  0  0  0  0
   -3.6827   -1.1947    0.5876 C   0  0  0  0  0  0  0  0  0  0  0  0
   -4.0850   -2.1133    1.7267 C   0  0  0  0  0  0  0  0  0  0  0  0
   -4.8772   -1.6087    2.7676 C   0  0  0  0  0  0  0  0  0  0  0  0
   -5.2879   -2.4639    3.7807 C   0  0  0  0  0  0  0  0  0  0  0  0
   -4.9747   -3.7745    3.8335 N   0  0  0  0  0  0  0  0  0  0  0  0
   -4.2179   -4.2497    2.8228 C   0  0  0  0  0  0  0  0  0  0  0  0
   -3.7670   -3.4776    1.7619 C   0  0  0  0  0  0  0  0  0  0  0  0
   -0.0177   -1.2280    0.0298 C   0  0  0  0  0  0  0  0  0  0  0  0
    0.4356   -2.5958   -0.0598 C   0  0  0  0  0  0  0  0  0  0  0  0
   -0.1982   -3.4683   -0.6511 O   0  0  0  0  0  0  0  0  0  0  0  0
    1.6010   -2.8900    0.6195 N   0  0  0  0  0  0  0  0  0  0  0  0
    2.1155   -4.2418    0.6863 C   0  0  0  0  0  0  0  0  0  0  0  0
    1.7469   -4.9444    1.9725 C   0  0  0  0  0  0  0  0  0  0  0  0
    2.7550   -5.3499    2.8790 C   0  0  0  0  0  0  0  0  0  0  0  0
    2.4403   -6.0555    4.0449 C   0  0  0  0  0  0  0  0  0  0  0  0
    1.1159   -6.3443    4.2831 C   0  0  0  0  0  0  0  0  0  0  0  0
    0.1229   -5.9545    3.4130 C   0  0  0  0  0  0  0  0  0  0  0  0
    0.4049   -5.2543    2.2578 C   0  0  0  0  0  0  0  0  0  0  0  0
   -1.1113   -6.3501    3.8249 O   0  0  0  0  0  0  0  0  0  0  0  0
   -0.7799   -7.0489    5.0432 C   0  0  0  0  0  0  0  0  0  0  0  0
    0.6303   -7.0330    5.3490 O   0  0  0  0  0  0  0  0  0  0  0  0
    2.3687    1.1769   -0.1527 H   0  0  0  0  0  0  0  0  0  0  0  0
    2.4924   -0.4317   -0.9169 H   0  0  0  0  0  0  0  0  0  0  0  0
    2.5977   -0.2560    0.8744 H   0  0  0  0  0  0  0  0  0  0  0  0
    0.1262    2.0267    0.1213 H   0  0  0  0  0  0  0  0  0  0  0  0
   -2.3063   -2.5400   -0.2711 H   0  0  0  0  0  0  0  0  0  0  0  0
   -4.4584   -1.2451   -0.1838 H   0  0  0  0  0  0  0  0  0  0  0  0
   -3.6636   -0.1608    0.9557 H   0  0  0  0  0  0  0  0  0  0  0  0
   -5.1722   -0.5654    2.7920 H   0  0  0  0  0  0  0  0  0  0  0  0
   -5.9034   -2.1027    4.5999 H   0  0  0  0  0  0  0  0  0  0  0  0
   -3.9742   -5.3067    2.8830 H   0  0  0  0  0  0  0  0  0  0  0  0
   -3.1780   -3.9533    0.9857 H   0  0  0  0  0  0  0  0  0  0  0  0
    1.9166   -2.2438    1.3251 H   0  0  0  0  0  0  0  0  0  0  0  0
    3.2046   -4.1588    0.6014 H   0  0  0  0  0  0  0  0  0  0  0  0
    1.7703   -4.8355   -0.1674 H   0  0  0  0  0  0  0  0  0  0  0  0
    3.8016   -5.1337    2.6674 H   0  0  0  0  0  0  0  0  0  0  0  0
    3.2104   -6.3773    4.7356 H   0  0  0  0  0  0  0  0  0  0  0  0
   -0.3980   -4.9741    1.5802 H   0  0  0  0  0  0  0  0  0  0  0  0
   -1.1030   -8.0927    4.9466 H   0  0  0  0  0  0  0  0  0  0  0  0
   -1.3251   -6.5890    5.8751 H   0  0  0  0  0  0  0  0  0  0  0  0
  1  2  1  0  0  0  0
  1 28  1  0  0  0  0
  1 29  1  0  0  0  0
  1 30  1  0  0  0  0
  2  3  1  0  0  0  0
  2 14  1  0  0  0  0
  3  4  2  0  0  0  0
  3 31  1  0  0  0  0
  4  5  1  0  0  0  0
  5  6  1  0  0  0  0
  5 14  2  0  0  0  0
  6  7  1  0  0  0  0
  6 32  1  0  0  0  0
  7  8  1  0  0  0  0
  7 33  1  0  0  0  0
  7 34  1  0  0  0  0
  8  9  1  0  0  0  0
  8 13  2  0  0  0  0
  9 10  2  0  0  0  0
  9 35  1  0  0  0  0
 10 11  1  0  0  0  0
 10 36  1  0  0  0  0
 11 12  2  0  0  0  0
 12 13  1  0  0  0  0
 12 37  1  0  0  0  0
 13 38  1  0  0  0  0
 14 15  1  0  0  0  0
 15 16  2  0  0  0  0
 15 17  1  0  0  0  0
 17 18  1  0  0  0  0
 17 39  1  0  0  0  0
 18 19  1  0  0  0  0
 18 40  1  0  0  0  0
 18 41  1  0  0  0  0
 19 20  1  0  0  0  0
 19 24  2  0  0  0  0
 20 21  2  0  0  0  0
 20 42  1  0  0  0  0
 21 22  1  0  0  0  0
 21 43  1  0  0  0  0
 22 23  2  0  0  0  0
 22 27  1  0  0  0  0
 23 24  1  0  0  0  0
 23 25  1  0  0  0  0
 24 44  1  0  0  0  0
 25 26  1  0  0  0  0
 26 27  1  0  0  0  0
 26 45  1  0  0  0  0
 26 46  1  0  0  0  0
M  END
$$$$
