CHEMBL323345
 OpenBabel04072215363D

 48 51  0  0  0  0  0  0  0  0999 V2000
    1.6793    4.1856   -2.2495 C   0  0  0  0  0  0  0  0  0  0  0  0
    3.0001    3.7034   -2.4589 O   0  0  0  0  0  0  0  0  0  0  0  0
    3.1792    2.3498   -2.3729 C   0  0  0  0  0  0  0  0  0  0  0  0
    2.2131    1.4185   -2.0022 C   0  0  0  0  0  0  0  0  0  0  0  0
    2.5347    0.0641   -1.9509 C   0  0  0  0  0  0  0  0  0  0  0  0
    3.8213   -0.3670   -2.2799 C   0  0  0  0  0  0  0  0  0  0  0  0
    4.8120    0.5442   -2.6804 C   0  0  0  0  0  0  0  0  0  0  0  0
    6.1546    0.0883   -3.0854 C   0  0  0  0  0  0  0  0  0  0  0  0
    6.3573   -1.1015   -3.7885 C   0  0  0  0  0  0  0  0  0  0  0  0
    7.5597   -1.5683   -4.2073 N   0  0  0  0  0  0  0  0  0  0  0  0
    8.6343   -0.7991   -3.9225 C   0  0  0  0  0  0  0  0  0  0  0  0
    8.5714    0.4051   -3.2368 C   0  0  0  0  0  0  0  0  0  0  0  0
    9.7422    1.1988   -2.9368 C   0  0  0  0  0  0  0  0  0  0  0  0
    9.8350    2.3264   -2.2632 N   0  0  0  0  0  0  0  0  0  0  0  0
   11.1907    2.5820   -2.2194 C   0  0  0  0  0  0  0  0  0  0  0  0
   11.7333    3.6631   -1.4116 C   0  0  0  0  0  0  0  0  0  0  0  0
   11.0060    4.0775   -0.2831 C   0  0  0  0  0  0  0  0  0  0  0  0
   11.5380    5.0044    0.6135 C   0  0  0  0  0  0  0  0  0  0  0  0
   12.8015    5.5402    0.3842 C   0  0  0  0  0  0  0  0  0  0  0  0
   13.5051    5.1913   -0.7674 C   0  0  0  0  0  0  0  0  0  0  0  0
   12.9654    4.2721   -1.6730 C   0  0  0  0  0  0  0  0  0  0  0  0
   11.8716    1.5865   -2.9052 C   0  0  0  0  0  0  0  0  0  0  0  0
   13.1976    1.3332   -3.1261 N   0  0  0  0  0  0  0  0  0  0  0  0
   13.7782    0.3031   -3.7996 C   0  0  0  0  0  0  0  0  0  0  0  0
   12.9943   -0.8160   -4.4286 C   0  0  0  0  0  0  0  0  0  0  0  0
   15.0126    0.2872   -3.8554 O   0  0  0  0  0  0  0  0  0  0  0  0
   10.9390    0.7090   -3.3670 O   0  0  0  0  0  0  0  0  0  0  0  0
    7.3066    0.8352   -2.8088 C   0  0  0  0  0  0  0  0  0  0  0  0
    4.4654    1.9085   -2.7025 C   0  0  0  0  0  0  0  0  0  0  0  0
    1.6874    5.2685   -2.4112 H   0  0  0  0  0  0  0  0  0  0  0  0
    1.3536    4.0035   -1.2200 H   0  0  0  0  0  0  0  0  0  0  0  0
    0.9798    3.7471   -2.9694 H   0  0  0  0  0  0  0  0  0  0  0  0
    1.2009    1.7134   -1.7452 H   0  0  0  0  0  0  0  0  0  0  0  0
    1.7820   -0.6624   -1.6558 H   0  0  0  0  0  0  0  0  0  0  0  0
    4.0394   -1.4311   -2.2133 H   0  0  0  0  0  0  0  0  0  0  0  0
    5.5239   -1.7431   -4.0649 H   0  0  0  0  0  0  0  0  0  0  0  0
    9.5778   -1.2039   -4.2781 H   0  0  0  0  0  0  0  0  0  0  0  0
   10.0215    3.6566   -0.0811 H   0  0  0  0  0  0  0  0  0  0  0  0
   10.9718    5.2913    1.4957 H   0  0  0  0  0  0  0  0  0  0  0  0
   13.2331    6.2367    1.0986 H   0  0  0  0  0  0  0  0  0  0  0  0
   14.4807    5.6326   -0.9575 H   0  0  0  0  0  0  0  0  0  0  0  0
   13.5259    4.0543   -2.5767 H   0  0  0  0  0  0  0  0  0  0  0  0
   13.8749    1.9690   -2.7273 H   0  0  0  0  0  0  0  0  0  0  0  0
   12.0469   -0.5005   -4.8609 H   0  0  0  0  0  0  0  0  0  0  0  0
   12.8371   -1.6081   -3.6902 H   0  0  0  0  0  0  0  0  0  0  0  0
   13.5785   -1.2239   -5.2616 H   0  0  0  0  0  0  0  0  0  0  0  0
    7.2347    1.7664   -2.2474 H   0  0  0  0  0  0  0  0  0  0  0  0
    5.1958    2.6575   -3.0049 H   0  0  0  0  0  0  0  0  0  0  0  0
  1  2  1  0  0  0  0
  1 30  1  0  0  0  0
  1 31  1  0  0  0  0
  1 32  1  0  0  0  0
  2  3  1  0  0  0  0
  3  4  1  0  0  0  0
  3 29  2  0  0  0  0
  4  5  2  0  0  0  0
  4 33  1  0  0  0  0
  5  6  1  0  0  0  0
  5 34  1  0  0  0  0
  6  7  2  0  0  0  0
  6 35  1  0  0  0  0
  7  8  1  0  0  0  0
  7 29  1  0  0  0  0
  8  9  1  0  0  0  0
  8 28  2  0  0  0  0
  9 10  2  0  0  0  0
  9 36  1  0  0  0  0
 10 11  1  0  0  0  0
 11 12  2  0  0  0  0
 11 37  1  0  0  0  0
 12 13  1  0  0  0  0
 12 28  1  0  0  0  0
 13 14  2  0  0  0  0
 13 27  1  0  0  0  0
 14 15  1  0  0  0  0
 15 16  1  0  0  0  0
 15 22  2  0  0  0  0
 16 17  1  0  0  0  0
 16 21  2  0  0  0  0
 17 18  2  0  0  0  0
 17 38  1  0  0  0  0
 18 19  1  0  0  0  0
 18 39  1  0  0  0  0
 19 20  2  0  0  0  0
 19 40  1  0  0  0  0
 20 21  1  0  0  0  0
 20 41  1  0  0  0  0
 21 42  1  0  0  0  0
 22 23  1  0  0  0  0
 22 27  1  0  0  0  0
 23 24  1  0  0  0  0
 23 43  1  0  0  0  0
 24 25  1  0  0  0  0
 24 26  2  0  0  0  0
 25 44  1  0  0  0  0
 25 45  1  0  0  0  0
 25 46  1  0  0  0  0
 28 47  1  0  0  0  0
 29 48  1  0  0  0  0
M  END
$$$$
