CHEMBL4173144
 OpenBabel04072215383D

 45 49  0  0  0  0  0  0  0  0999 V2000
    4.8310    2.8771    4.0806 C   0  0  0  0  0  0  0  0  0  0  0  0
    5.3015    2.1160    2.9505 N   0  0  0  0  0  0  0  0  0  0  0  0
    5.3735    2.6831    1.7222 N   0  0  0  0  0  0  0  0  0  0  0  0
    5.8678    1.6988    0.9602 C   0  0  0  0  0  0  0  0  0  0  0  0
    6.1006    0.5147    1.6841 C   0  0  0  0  0  0  0  0  0  0  0  0
    6.5945   -0.7631    1.4625 C   0  0  0  0  0  0  0  0  0  0  0  0
    7.0540   -1.1323    0.2049 O   0  0  0  0  0  0  0  0  0  0  0  0
    8.1294   -1.9941    0.1460 C   0  0  0  0  0  0  0  0  0  0  0  0
    8.1899   -2.8522   -0.9572 C   0  0  0  0  0  0  0  0  0  0  0  0
    9.2274   -3.7868   -1.1032 C   0  0  0  0  0  0  0  0  0  0  0  0
   10.1921   -3.8228   -0.0880 C   0  0  0  0  0  0  0  0  0  0  0  0
   10.1741   -2.9424    0.9834 C   0  0  0  0  0  0  0  0  0  0  0  0
    9.1565   -1.9915    1.0953 C   0  0  0  0  0  0  0  0  0  0  0  0
   11.2239   -3.1647    1.8209 N   0  0  0  0  0  0  0  0  0  0  0  0
   11.8971   -4.1777    1.3226 C   0  0  0  0  0  0  0  0  0  0  0  0
   13.0356   -4.7261    1.8170 N   0  0  0  0  0  0  0  0  0  0  0  0
   13.6675   -4.3075    3.0128 C   0  0  0  0  0  0  0  0  0  0  0  0
   12.9545   -3.7807    4.1036 C   0  0  0  0  0  0  0  0  0  0  0  0
   13.6125   -3.2731    5.2267 C   0  0  0  0  0  0  0  0  0  0  0  0
   14.9980   -3.2868    5.2654 C   0  0  0  0  0  0  0  0  0  0  0  0
   15.6354   -2.7774    6.3276 F   0  0  0  0  0  0  0  0  0  0  0  0
   15.7328   -3.8143    4.2113 C   0  0  0  0  0  0  0  0  0  0  0  0
   15.0698   -4.3254    3.0902 C   0  0  0  0  0  0  0  0  0  0  0  0
   11.2947   -4.6175    0.1577 N   0  0  0  0  0  0  0  0  0  0  0  0
   11.6734   -5.7442   -0.6584 C   0  0  0  0  0  0  0  0  0  0  0  0
    6.6151   -1.6531    2.4880 N   0  0  0  0  0  0  0  0  0  0  0  0
    6.2274   -1.2256    3.7033 C   0  0  0  0  0  0  0  0  0  0  0  0
    5.7693   -0.0069    4.0429 N   0  0  0  0  0  0  0  0  0  0  0  0
    5.7204    0.8145    2.9795 C   0  0  0  0  0  0  0  0  0  0  0  0
    4.5599    3.8850    3.7558 H   0  0  0  0  0  0  0  0  0  0  0  0
    5.6336    2.9283    4.8203 H   0  0  0  0  0  0  0  0  0  0  0  0
    3.9560    2.3724    4.4967 H   0  0  0  0  0  0  0  0  0  0  0  0
    6.0391    1.8863   -0.0926 H   0  0  0  0  0  0  0  0  0  0  0  0
    7.4079   -2.8072   -1.7123 H   0  0  0  0  0  0  0  0  0  0  0  0
    9.2586   -4.4575   -1.9546 H   0  0  0  0  0  0  0  0  0  0  0  0
    9.1733   -1.3111    1.9376 H   0  0  0  0  0  0  0  0  0  0  0  0
   13.6242   -5.3028    1.2321 H   0  0  0  0  0  0  0  0  0  0  0  0
   11.8669   -3.7534    4.0875 H   0  0  0  0  0  0  0  0  0  0  0  0
   13.0488   -2.8559    6.0541 H   0  0  0  0  0  0  0  0  0  0  0  0
   16.8165   -3.8056    4.2594 H   0  0  0  0  0  0  0  0  0  0  0  0
   15.6618   -4.7048    2.2626 H   0  0  0  0  0  0  0  0  0  0  0  0
   12.3378   -6.4114   -0.1069 H   0  0  0  0  0  0  0  0  0  0  0  0
   12.1716   -5.3652   -1.5541 H   0  0  0  0  0  0  0  0  0  0  0  0
   10.7720   -6.2998   -0.9332 H   0  0  0  0  0  0  0  0  0  0  0  0
    6.3016   -1.9516    4.5078 H   0  0  0  0  0  0  0  0  0  0  0  0
  1  2  1  0  0  0  0
  1 30  1  0  0  0  0
  1 31  1  0  0  0  0
  1 32  1  0  0  0  0
  2  3  1  0  0  0  0
  2 29  1  0  0  0  0
  3  4  2  0  0  0  0
  4  5  1  0  0  0  0
  4 33  1  0  0  0  0
  5  6  1  0  0  0  0
  5 29  2  0  0  0  0
  6  7  1  0  0  0  0
  6 26  2  0  0  0  0
  7  8  1  0  0  0  0
  8  9  1  0  0  0  0
  8 13  2  0  0  0  0
  9 10  2  0  0  0  0
  9 34  1  0  0  0  0
 10 11  1  0  0  0  0
 10 35  1  0  0  0  0
 11 12  2  0  0  0  0
 11 24  1  0  0  0  0
 12 13  1  0  0  0  0
 12 14  1  0  0  0  0
 13 36  1  0  0  0  0
 14 15  2  0  0  0  0
 15 16  1  0  0  0  0
 15 24  1  0  0  0  0
 16 17  1  0  0  0  0
 16 37  1  0  0  0  0
 17 18  1  0  0  0  0
 17 23  2  0  0  0  0
 18 19  2  0  0  0  0
 18 38  1  0  0  0  0
 19 20  1  0  0  0  0
 19 39  1  0  0  0  0
 20 21  1  0  0  0  0
 20 22  2  0  0  0  0
 22 23  1  0  0  0  0
 22 40  1  0  0  0  0
 23 41  1  0  0  0  0
 24 25  1  0  0  0  0
 25 42  1  0  0  0  0
 25 43  1  0  0  0  0
 25 44  1  0  0  0  0
 26 27  1  0  0  0  0
 27 28  2  0  0  0  0
 27 45  1  0  0  0  0
 28 29  1  0  0  0  0
M  END
$$$$
