CHEMBL3742349
 OpenBabel04072215373D

 64 68  0  0  0  0  0  0  0  0999 V2000
    2.2540    0.1572    0.2373 C   0  0  0  0  0  0  0  0  0  0  0  0
    3.1867   -0.9544   -0.2097 C   0  0  0  0  0  0  0  0  0  0  0  0
    3.9406   -1.3758    0.9365 O   0  0  0  0  0  0  0  0  0  0  0  0
    5.1422   -0.7482    1.1151 C   0  0  0  0  0  0  0  0  0  0  0  0
    5.7762   -0.1925    0.2246 O   0  0  0  0  0  0  0  0  0  0  0  0
    5.5364   -0.7249    2.5307 C   0  0  0  0  0  0  0  0  0  0  0  0
    5.3116   -1.7533    3.3741 N   0  0  0  0  0  0  0  0  0  0  0  0
    5.7312   -1.3273    4.5858 N   0  0  0  0  0  0  0  0  0  0  0  0
    5.6695   -2.1642    5.7213 C   0  0  0  0  0  0  0  0  0  0  0  0
    5.2010   -3.4757    5.5943 C   0  0  0  0  0  0  0  0  0  0  0  0
    5.1630   -4.3160    6.7061 C   0  0  0  0  0  0  0  0  0  0  0  0
    5.5908   -3.8527    7.9599 C   0  0  0  0  0  0  0  0  0  0  0  0
    5.5626   -4.7359    9.1635 C   0  0  0  0  0  0  0  0  0  0  0  0
    6.0425   -2.5364    8.0845 C   0  0  0  0  0  0  0  0  0  0  0  0
    6.0869   -1.6933    6.9786 C   0  0  0  0  0  0  0  0  0  0  0  0
    6.2013   -0.0378    4.5357 C   0  0  0  0  0  0  0  0  0  0  0  0
    6.1435    0.3645    3.2202 C   0  0  0  0  0  0  0  0  0  0  0  0
    6.4349    1.6727    2.6811 C   0  0  0  0  0  0  0  0  0  0  0  0
    5.6796    2.1058    1.8211 O   0  0  0  0  0  0  0  0  0  0  0  0
    7.5653    2.4533    3.2385 C   0  0  0  0  0  0  0  0  0  0  0  0
    8.7445    1.9661    3.8152 C   0  0  0  0  0  0  0  0  0  0  0  0
    9.2996    0.5987    4.0326 C   0  0  0  0  0  0  0  0  0  0  0  0
    9.4903    3.0479    4.2246 N   0  0  0  0  0  0  0  0  0  0  0  0
    8.8791    4.2364    3.9029 C   0  0  0  0  0  0  0  0  0  0  0  0
    9.4899    5.5352    4.2616 C   0  0  0  0  0  0  0  0  0  0  0  0
    9.3797    6.6344    3.3984 C   0  0  0  0  0  0  0  0  0  0  0  0
    9.6965    7.9236    3.8294 C   0  0  0  0  0  0  0  0  0  0  0  0
   10.2172    8.1207    5.1036 C   0  0  0  0  0  0  0  0  0  0  0  0
   10.4420    7.0258    5.9346 C   0  0  0  0  0  0  0  0  0  0  0  0
   10.0732    5.7394    5.5212 C   0  0  0  0  0  0  0  0  0  0  0  0
    7.6774    3.9083    3.2682 C   0  0  0  0  0  0  0  0  0  0  0  0
    6.7101    4.9117    2.7812 C   0  0  0  0  0  0  0  0  0  0  0  0
    6.1229    4.7835    1.5153 C   0  0  0  0  0  0  0  0  0  0  0  0
    5.1657    5.6915    1.0585 C   0  0  0  0  0  0  0  0  0  0  0  0
    4.8810    6.8297    1.8034 C   0  0  0  0  0  0  0  0  0  0  0  0
    5.5117    7.0227    3.0274 C   0  0  0  0  0  0  0  0  0  0  0  0
    6.3698    6.0429    3.5384 C   0  0  0  0  0  0  0  0  0  0  0  0
    1.6107    0.4928   -0.5812 H   0  0  0  0  0  0  0  0  0  0  0  0
    2.8230    1.0143    0.6126 H   0  0  0  0  0  0  0  0  0  0  0  0
    1.6223   -0.1851    1.0651 H   0  0  0  0  0  0  0  0  0  0  0  0
    3.8233   -0.6276   -1.0387 H   0  0  0  0  0  0  0  0  0  0  0  0
    2.6061   -1.8128   -0.5586 H   0  0  0  0  0  0  0  0  0  0  0  0
    4.8689   -3.8610    4.6313 H   0  0  0  0  0  0  0  0  0  0  0  0
    4.8036   -5.3346    6.5875 H   0  0  0  0  0  0  0  0  0  0  0  0
    5.2673   -5.7642    8.9028 H   0  0  0  0  0  0  0  0  0  0  0  0
    4.8463   -4.3510    9.8952 H   0  0  0  0  0  0  0  0  0  0  0  0
    6.5563   -4.7806    9.6181 H   0  0  0  0  0  0  0  0  0  0  0  0
    6.3652   -2.1584    9.0541 H   0  0  0  0  0  0  0  0  0  0  0  0
    6.4474   -0.6824    7.1327 H   0  0  0  0  0  0  0  0  0  0  0  0
    6.5229    0.5015    5.4078 H   0  0  0  0  0  0  0  0  0  0  0  0
    8.7479   -0.1755    3.4960 H   0  0  0  0  0  0  0  0  0  0  0  0
    9.2926    0.3519    5.1004 H   0  0  0  0  0  0  0  0  0  0  0  0
   10.3362    0.5419    3.6810 H   0  0  0  0  0  0  0  0  0  0  0  0
   10.3908    2.9816    4.6789 H   0  0  0  0  0  0  0  0  0  0  0  0
    8.9620    6.5086    2.4008 H   0  0  0  0  0  0  0  0  0  0  0  0
    9.4994    8.7708    3.1778 H   0  0  0  0  0  0  0  0  0  0  0  0
   10.4395    9.1271    5.4488 H   0  0  0  0  0  0  0  0  0  0  0  0
   10.8676    7.1788    6.9235 H   0  0  0  0  0  0  0  0  0  0  0  0
   10.1993    4.9179    6.2206 H   0  0  0  0  0  0  0  0  0  0  0  0
    6.3878    3.9601    0.8590 H   0  0  0  0  0  0  0  0  0  0  0  0
    4.6601    5.5059    0.1155 H   0  0  0  0  0  0  0  0  0  0  0  0
    4.1774    7.5634    1.4241 H   0  0  0  0  0  0  0  0  0  0  0  0
    5.3382    7.9358    3.5907 H   0  0  0  0  0  0  0  0  0  0  0  0
    6.8124    6.2072    4.5182 H   0  0  0  0  0  0  0  0  0  0  0  0
  1  2  1  0  0  0  0
  1 38  1  0  0  0  0
  1 39  1  0  0  0  0
  1 40  1  0  0  0  0
  2  3  1  0  0  0  0
  2 41  1  0  0  0  0
  2 42  1  0  0  0  0
  3  4  1  0  0  0  0
  4  5  2  0  0  0  0
  4  6  1  0  0  0  0
  6  7  2  0  0  0  0
  6 17  1  0  0  0  0
  7  8  1  0  0  0  0
  8  9  1  0  0  0  0
  8 16  1  0  0  0  0
  9 10  1  0  0  0  0
  9 15  2  0  0  0  0
 10 11  2  0  0  0  0
 10 43  1  0  0  0  0
 11 12  1  0  0  0  0
 11 44  1  0  0  0  0
 12 13  1  0  0  0  0
 12 14  2  0  0  0  0
 13 45  1  0  0  0  0
 13 46  1  0  0  0  0
 13 47  1  0  0  0  0
 14 15  1  0  0  0  0
 14 48  1  0  0  0  0
 15 49  1  0  0  0  0
 16 17  2  0  0  0  0
 16 50  1  0  0  0  0
 17 18  1  0  0  0  0
 18 19  2  0  0  0  0
 18 20  1  0  0  0  0
 20 21  2  0  0  0  0
 20 31  1  0  0  0  0
 21 22  1  0  0  0  0
 21 23  1  0  0  0  0
 22 51  1  0  0  0  0
 22 52  1  0  0  0  0
 22 53  1  0  0  0  0
 23 24  1  0  0  0  0
 23 54  1  0  0  0  0
 24 25  1  0  0  0  0
 24 31  2  0  0  0  0
 25 26  1  0  0  0  0
 25 30  2  0  0  0  0
 26 27  2  0  0  0  0
 26 55  1  0  0  0  0
 27 28  1  0  0  0  0
 27 56  1  0  0  0  0
 28 29  2  0  0  0  0
 28 57  1  0  0  0  0
 29 30  1  0  0  0  0
 29 58  1  0  0  0  0
 30 59  1  0  0  0  0
 31 32  1  0  0  0  0
 32 33  1  0  0  0  0
 32 37  2  0  0  0  0
 33 34  2  0  0  0  0
 33 60  1  0  0  0  0
 34 35  1  0  0  0  0
 34 61  1  0  0  0  0
 35 36  2  0  0  0  0
 35 62  1  0  0  0  0
 36 37  1  0  0  0  0
 36 63  1  0  0  0  0
 37 64  1  0  0  0  0
M  END
$$$$
