CHEMBL1983923
 OpenBabel04072215363D

 53 56  0  0  0  0  0  0  0  0999 V2000
    2.1939    0.0520   -4.7219 C   0  0  0  0  0  0  0  0  0  0  0  0
    2.4336    0.2233   -3.2759 C   0  0  0  0  0  0  0  0  0  0  0  0
    2.1314    1.2539   -2.4203 C   0  0  0  0  0  0  0  0  0  0  0  0
    2.6188    0.8511   -1.1564 C   0  0  0  0  0  0  0  0  0  0  0  0
    2.5031    1.5763   -0.0281 N   0  0  0  0  0  0  0  0  0  0  0  0
    2.4248    2.9774    0.0590 C   0  0  0  0  0  0  0  0  0  0  0  0
    1.7382    3.5277    1.1146 C   0  0  0  0  0  0  0  0  0  0  0  0
    1.5828    4.9014    1.1517 C   0  0  0  0  0  0  0  0  0  0  0  0
    0.8955    5.4652    2.2048 N   0  0  0  0  0  0  0  0  0  0  0  0
    1.0967    6.8717    2.5500 C   0  0  0  0  0  0  0  0  0  0  0  0
    0.9855    6.9889    4.0928 C   0  0  0  0  0  0  0  0  0  0  0  0
   -0.2976    6.4605    4.6266 N   0  0  0  0  0  0  0  0  0  0  0  0
   -0.3056    6.5128    6.0861 C   0  0  0  0  0  0  0  0  0  0  0  0
   -0.5022    5.0671    4.1633 C   0  0  0  0  0  0  0  0  0  0  0  0
   -0.4071    4.9379    2.6279 C   0  0  0  0  0  0  0  0  0  0  0  0
    2.1432    5.6850    0.2184 N   0  0  0  0  0  0  0  0  0  0  0  0
    2.8023    5.0670   -0.7729 C   0  0  0  0  0  0  0  0  0  0  0  0
    3.3998    5.8500   -1.8531 C   0  0  0  0  0  0  0  0  0  0  0  0
    3.2559    7.1707   -2.0390 C   0  0  0  0  0  0  0  0  0  0  0  0
    3.8398    7.9009   -3.1756 C   0  0  0  0  0  0  0  0  0  0  0  0
    4.0302    7.3087   -4.4337 C   0  0  0  0  0  0  0  0  0  0  0  0
    4.5572    8.0444   -5.4988 C   0  0  0  0  0  0  0  0  0  0  0  0
    4.8836    9.3865   -5.3238 C   0  0  0  0  0  0  0  0  0  0  0  0
    4.6813    9.9935   -4.0861 C   0  0  0  0  0  0  0  0  0  0  0  0
    4.1566    9.2560   -3.0194 C   0  0  0  0  0  0  0  0  0  0  0  0
    2.9521    3.7447   -0.8997 N   0  0  0  0  0  0  0  0  0  0  0  0
    3.1442   -0.3727   -1.2054 N   0  0  0  0  0  0  0  0  0  0  0  0
    3.0542   -0.7157   -2.5004 N   0  0  0  0  0  0  0  0  0  0  0  0
    1.6397    0.9060   -5.1263 H   0  0  0  0  0  0  0  0  0  0  0  0
    1.6069   -0.8510   -4.9148 H   0  0  0  0  0  0  0  0  0  0  0  0
    3.1418   -0.0216   -5.2621 H   0  0  0  0  0  0  0  0  0  0  0  0
    1.6233    2.1759   -2.6666 H   0  0  0  0  0  0  0  0  0  0  0  0
    2.8958    1.1564    0.8043 H   0  0  0  0  0  0  0  0  0  0  0  0
    1.3325    2.8922    1.8887 H   0  0  0  0  0  0  0  0  0  0  0  0
    0.3422    7.5017    2.0617 H   0  0  0  0  0  0  0  0  0  0  0  0
    2.0868    7.2330    2.2483 H   0  0  0  0  0  0  0  0  0  0  0  0
    1.0975    8.0418    4.3737 H   0  0  0  0  0  0  0  0  0  0  0  0
    1.8257    6.4364    4.5376 H   0  0  0  0  0  0  0  0  0  0  0  0
   -0.1889    7.5449    6.4322 H   0  0  0  0  0  0  0  0  0  0  0  0
    0.4931    5.9064    6.5288 H   0  0  0  0  0  0  0  0  0  0  0  0
   -1.2649    6.1537    6.4744 H   0  0  0  0  0  0  0  0  0  0  0  0
   -1.4878    4.7105    4.4837 H   0  0  0  0  0  0  0  0  0  0  0  0
    0.2512    4.4045    4.6126 H   0  0  0  0  0  0  0  0  0  0  0  0
   -1.2146    5.5082    2.1497 H   0  0  0  0  0  0  0  0  0  0  0  0
   -0.5600    3.8890    2.3523 H   0  0  0  0  0  0  0  0  0  0  0  0
    3.9866    5.2491   -2.5407 H   0  0  0  0  0  0  0  0  0  0  0  0
    2.6768    7.7585   -1.3302 H   0  0  0  0  0  0  0  0  0  0  0  0
    3.7651    6.2686   -4.6058 H   0  0  0  0  0  0  0  0  0  0  0  0
    4.7052    7.5675   -6.4641 H   0  0  0  0  0  0  0  0  0  0  0  0
    5.2898    9.9600   -6.1526 H   0  0  0  0  0  0  0  0  0  0  0  0
    4.9289   11.0427   -3.9491 H   0  0  0  0  0  0  0  0  0  0  0  0
    4.0073    9.7512   -2.0625 H   0  0  0  0  0  0  0  0  0  0  0  0
    3.4299   -1.6124   -2.7865 H   0  0  0  0  0  0  0  0  0  0  0  0
  1  2  1  0  0  0  0
  1 29  1  0  0  0  0
  1 30  1  0  0  0  0
  1 31  1  0  0  0  0
  2  3  2  0  0  0  0
  2 28  1  0  0  0  0
  3  4  1  0  0  0  0
  3 32  1  0  0  0  0
  4  5  1  0  0  0  0
  4 27  2  0  0  0  0
  5  6  1  0  0  0  0
  5 33  1  0  0  0  0
  6  7  1  0  0  0  0
  6 26  2  0  0  0  0
  7  8  2  0  0  0  0
  7 34  1  0  0  0  0
  8  9  1  0  0  0  0
  8 16  1  0  0  0  0
  9 10  1  0  0  0  0
  9 15  1  0  0  0  0
 10 11  1  0  0  0  0
 10 35  1  0  0  0  0
 10 36  1  0  0  0  0
 11 12  1  0  0  0  0
 11 37  1  0  0  0  0
 11 38  1  0  0  0  0
 12 13  1  0  0  0  0
 12 14  1  0  0  0  0
 13 39  1  0  0  0  0
 13 40  1  0  0  0  0
 13 41  1  0  0  0  0
 14 15  1  0  0  0  0
 14 42  1  0  0  0  0
 14 43  1  0  0  0  0
 15 44  1  0  0  0  0
 15 45  1  0  0  0  0
 16 17  2  0  0  0  0
 17 18  1  0  0  0  0
 17 26  1  0  0  0  0
 18 19  2  3  0  0  0
 18 46  1  0  0  0  0
 19 20  1  0  0  0  0
 19 47  1  0  0  0  0
 20 21  1  0  0  0  0
 20 25  2  0  0  0  0
 21 22  2  0  0  0  0
 21 48  1  0  0  0  0
 22 23  1  0  0  0  0
 22 49  1  0  0  0  0
 23 24  2  0  0  0  0
 23 50  1  0  0  0  0
 24 25  1  0  0  0  0
 24 51  1  0  0  0  0
 25 52  1  0  0  0  0
 27 28  1  0  0  0  0
 28 53  1  0  0  0  0
M  END
$$$$
