CHEMBL3933264
 OpenBabel04072215373D

 57 60  0  0  0  0  0  0  0  0999 V2000
    3.3337    6.0424    1.6133 C   0  0  0  0  0  0  0  0  0  0  0  0
    1.9279    6.4358    1.2552 C   0  0  0  0  0  0  0  0  0  0  0  0
    1.5753    7.7894    1.2694 C   0  0  0  0  0  0  0  0  0  0  0  0
    0.2938    8.1756    0.9132 C   0  0  0  0  0  0  0  0  0  0  0  0
   -0.6532    7.2187    0.5532 C   0  0  0  0  0  0  0  0  0  0  0  0
   -1.8170    7.6978    0.0952 F   0  0  0  0  0  0  0  0  0  0  0  0
   -0.3606    5.8457    0.5801 C   0  0  0  0  0  0  0  0  0  0  0  0
   -1.3041    4.8165    0.2939 N   0  0  0  0  0  0  0  0  0  0  0  0
   -2.6863    4.9649    0.3113 C   0  0  0  0  0  0  0  0  0  0  0  0
   -3.2948    5.9867    0.5996 O   0  0  0  0  0  0  0  0  0  0  0  0
   -3.3549    3.7756    0.0395 N   0  0  0  0  0  0  0  0  0  0  0  0
   -4.7768    3.7712    0.0197 C   0  0  0  0  0  0  0  0  0  0  0  0
   -5.5083    4.6625   -0.7726 C   0  0  0  0  0  0  0  0  0  0  0  0
   -6.9099    4.6603   -0.7284 C   0  0  0  0  0  0  0  0  0  0  0  0
   -7.5861    3.7800    0.1213 C   0  0  0  0  0  0  0  0  0  0  0  0
   -8.9618    3.8910    0.1514 O   0  0  0  0  0  0  0  0  0  0  0  0
   -9.6414    3.5848    1.3160 C   0  0  0  0  0  0  0  0  0  0  0  0
   -9.1176    3.8081    2.5904 C   0  0  0  0  0  0  0  0  0  0  0  0
   -9.8219    3.3723    3.6936 C   0  0  0  0  0  0  0  0  0  0  0  0
  -11.0393    2.8074    3.6583 N   0  0  0  0  0  0  0  0  0  0  0  0
  -11.6039    2.6959    2.4269 C   0  0  0  0  0  0  0  0  0  0  0  0
  -12.9098    2.1865    2.1792 C   0  0  0  0  0  0  0  0  0  0  0  0
  -13.2511    2.2056    0.8418 C   0  0  0  0  0  0  0  0  0  0  0  0
  -14.5236    1.7961    0.2621 C   0  0  0  0  0  0  0  0  0  0  0  0
  -15.4654    1.3868    0.9372 O   0  0  0  0  0  0  0  0  0  0  0  0
  -14.6198    1.9108   -1.1092 N   0  0  0  0  0  0  0  0  0  0  0  0
  -15.8040    1.5213   -1.8512 C   0  0  0  0  0  0  0  0  0  0  0  0
  -16.7993    2.6700   -1.9741 C   0  0  0  0  0  0  0  0  0  0  0  0
  -18.0060    2.2113   -2.7464 C   0  0  0  0  0  0  0  0  0  0  0  0
  -17.9924    1.3646   -3.6187 O   0  0  0  0  0  0  0  0  0  0  0  0
  -19.1406    2.8850   -2.4163 O   0  0  0  0  0  0  0  0  0  0  0  0
  -11.9557    2.7937   -0.1137 S   0  0  0  0  0  0  0  0  0  0  0  0
  -10.9492    3.0698    1.2527 C   0  0  0  0  0  0  0  0  0  0  0  0
   -6.8552    2.8436    0.8604 C   0  0  0  0  0  0  0  0  0  0  0  0
   -5.4643    2.8650    0.8240 C   0  0  0  0  0  0  0  0  0  0  0  0
   -4.7820    2.0524    1.6456 F   0  0  0  0  0  0  0  0  0  0  0  0
    0.9545    5.4719    0.9092 C   0  0  0  0  0  0  0  0  0  0  0  0
    3.9468    6.9228    1.8325 H   0  0  0  0  0  0  0  0  0  0  0  0
    3.8051    5.5146    0.7792 H   0  0  0  0  0  0  0  0  0  0  0  0
    3.3391    5.4064    2.5036 H   0  0  0  0  0  0  0  0  0  0  0  0
    2.3005    8.5529    1.5400 H   0  0  0  0  0  0  0  0  0  0  0  0
    0.0115    9.2231    0.8921 H   0  0  0  0  0  0  0  0  0  0  0  0
   -0.9463    3.8824    0.1815 H   0  0  0  0  0  0  0  0  0  0  0  0
   -2.9430    2.9656    0.4886 H   0  0  0  0  0  0  0  0  0  0  0  0
   -4.9970    5.3731   -1.4188 H   0  0  0  0  0  0  0  0  0  0  0  0
   -7.4676    5.3644   -1.3410 H   0  0  0  0  0  0  0  0  0  0  0  0
   -8.1499    4.2774    2.7333 H   0  0  0  0  0  0  0  0  0  0  0  0
   -9.3871    3.4639    4.6861 H   0  0  0  0  0  0  0  0  0  0  0  0
  -13.5755    1.8367    2.9599 H   0  0  0  0  0  0  0  0  0  0  0  0
  -13.8142    2.2593   -1.6145 H   0  0  0  0  0  0  0  0  0  0  0  0
  -16.2713    0.6641   -1.3537 H   0  0  0  0  0  0  0  0  0  0  0  0
  -15.4632    1.1911   -2.8372 H   0  0  0  0  0  0  0  0  0  0  0  0
  -16.3536    3.5191   -2.5005 H   0  0  0  0  0  0  0  0  0  0  0  0
  -17.0958    3.0051   -0.9748 H   0  0  0  0  0  0  0  0  0  0  0  0
  -19.0237    3.5306   -1.6926 H   0  0  0  0  0  0  0  0  0  0  0  0
   -7.3415    2.1217    1.5074 H   0  0  0  0  0  0  0  0  0  0  0  0
    1.2406    4.4200    0.9245 H   0  0  0  0  0  0  0  0  0  0  0  0
  1  2  1  0  0  0  0
  1 38  1  0  0  0  0
  1 39  1  0  0  0  0
  1 40  1  0  0  0  0
  2  3  1  0  0  0  0
  2 37  2  0  0  0  0
  3  4  2  0  0  0  0
  3 41  1  0  0  0  0
  4  5  1  0  0  0  0
  4 42  1  0  0  0  0
  5  6  1  0  0  0  0
  5  7  2  0  0  0  0
  7  8  1  0  0  0  0
  7 37  1  0  0  0  0
  8  9  1  0  0  0  0
  8 43  1  0  0  0  0
  9 10  2  0  0  0  0
  9 11  1  0  0  0  0
 11 12  1  0  0  0  0
 11 44  1  0  0  0  0
 12 13  1  0  0  0  0
 12 35  2  0  0  0  0
 13 14  2  0  0  0  0
 13 45  1  0  0  0  0
 14 15  1  0  0  0  0
 14 46  1  0  0  0  0
 15 16  1  0  0  0  0
 15 34  2  0  0  0  0
 16 17  1  0  0  0  0
 17 18  1  0  0  0  0
 17 33  2  0  0  0  0
 18 19  2  0  0  0  0
 18 47  1  0  0  0  0
 19 20  1  0  0  0  0
 19 48  1  0  0  0  0
 20 21  2  0  0  0  0
 21 22  1  0  0  0  0
 21 33  1  0  0  0  0
 22 23  2  0  0  0  0
 22 49  1  0  0  0  0
 23 24  1  0  0  0  0
 23 32  1  0  0  0  0
 24 25  2  0  0  0  0
 24 26  1  0  0  0  0
 26 27  1  0  0  0  0
 26 50  1  0  0  0  0
 27 28  1  0  0  0  0
 27 51  1  0  0  0  0
 27 52  1  0  0  0  0
 28 29  1  0  0  0  0
 28 53  1  0  0  0  0
 28 54  1  0  0  0  0
 29 30  2  0  0  0  0
 29 31  1  0  0  0  0
 31 55  1  0  0  0  0
 32 33  1  0  0  0  0
 34 35  1  0  0  0  0
 34 56  1  0  0  0  0
 35 36  1  0  0  0  0
 37 57  1  0  0  0  0
M  END
$$$$
