CHEMBL510814
 OpenBabel04072215383D

 58 63  0  0  0  0  0  0  0  0999 V2000
    2.3745   -0.3463    1.4932 C   0  0  0  0  0  0  0  0  0  0  0  0
    0.8740   -0.2829    1.4574 C   0  0  0  0  0  0  0  0  0  0  0  0
    0.2424    0.9009    1.8538 C   0  0  0  0  0  0  0  0  0  0  0  0
   -1.1392    0.9921    1.8235 C   0  0  0  0  0  0  0  0  0  0  0  0
   -1.9029   -0.0928    1.3970 C   0  0  0  0  0  0  0  0  0  0  0  0
   -1.3126   -1.2954    0.9861 C   0  0  0  0  0  0  0  0  0  0  0  0
   -2.0851   -2.4121    0.5370 N   0  0  0  0  0  0  0  0  0  0  0  0
   -3.4684   -2.4399    0.4174 C   0  0  0  0  0  0  0  0  0  0  0  0
   -4.2175   -1.4981    0.6774 O   0  0  0  0  0  0  0  0  0  0  0  0
   -3.9701   -3.6698   -0.0028 N   0  0  0  0  0  0  0  0  0  0  0  0
   -5.3860   -3.8128   -0.1209 C   0  0  0  0  0  0  0  0  0  0  0  0
   -6.1270   -2.9517   -0.9404 C   0  0  0  0  0  0  0  0  0  0  0  0
   -7.5268   -3.0200   -0.9758 C   0  0  0  0  0  0  0  0  0  0  0  0
   -8.2096   -3.9412   -0.1749 C   0  0  0  0  0  0  0  0  0  0  0  0
   -9.6801   -3.9594   -0.1434 C   0  0  0  0  0  0  0  0  0  0  0  0
  -10.4292   -3.1444    0.8653 C   0  0  0  0  0  0  0  0  0  0  0  0
  -11.7166   -3.0738    1.0236 N   0  0  0  0  0  0  0  0  0  0  0  0
  -12.4723   -3.8349    0.1658 C   0  0  0  0  0  0  0  0  0  0  0  0
  -13.8372   -4.0215    0.0309 C   0  0  0  0  0  0  0  0  0  0  0  0
  -14.9065   -3.3758    0.7874 C   0  0  0  0  0  0  0  0  0  0  0  0
  -14.7498   -2.0831    1.3369 C   0  0  0  0  0  0  0  0  0  0  0  0
  -15.8225   -1.4170    1.9462 C   0  0  0  0  0  0  0  0  0  0  0  0
  -17.0392   -2.0594    1.9840 C   0  0  0  0  0  0  0  0  0  0  0  0
  -17.1985   -3.3255    1.4779 C   0  0  0  0  0  0  0  0  0  0  0  0
  -16.1558   -4.0128    0.8917 C   0  0  0  0  0  0  0  0  0  0  0  0
  -18.4767   -3.7767    1.5945 O   0  0  0  0  0  0  0  0  0  0  0  0
  -19.1201   -2.6110    2.1500 C   0  0  0  0  0  0  0  0  0  0  0  0
  -18.1985   -1.5511    2.4796 O   0  0  0  0  0  0  0  0  0  0  0  0
  -13.9553   -4.9555   -1.0252 C   0  0  0  0  0  0  0  0  0  0  0  0
  -12.7906   -5.3389   -1.5301 N   0  0  0  0  0  0  0  0  0  0  0  0
  -11.8666   -4.6236   -0.8190 N   0  0  0  0  0  0  0  0  0  0  0  0
  -10.4569   -4.6767   -0.9889 C   0  0  0  0  0  0  0  0  0  0  0  0
   -9.9789   -5.4886   -2.0186 N   0  0  0  0  0  0  0  0  0  0  0  0
   -7.4647   -4.8267    0.6175 C   0  0  0  0  0  0  0  0  0  0  0  0
   -6.0594   -4.7766    0.6316 C   0  0  0  0  0  0  0  0  0  0  0  0
    0.0911   -1.3792    1.0246 C   0  0  0  0  0  0  0  0  0  0  0  0
    2.8006    0.5869    1.8835 H   0  0  0  0  0  0  0  0  0  0  0  0
    2.7764   -0.4925    0.4872 H   0  0  0  0  0  0  0  0  0  0  0  0
    2.7108   -1.1549    2.1505 H   0  0  0  0  0  0  0  0  0  0  0  0
    0.8204    1.7597    2.1868 H   0  0  0  0  0  0  0  0  0  0  0  0
   -1.6380    1.9087    2.1280 H   0  0  0  0  0  0  0  0  0  0  0  0
   -2.9750    0.0561    1.3981 H   0  0  0  0  0  0  0  0  0  0  0  0
   -1.5697   -3.2162    0.2068 H   0  0  0  0  0  0  0  0  0  0  0  0
   -3.4729   -4.4649    0.3700 H   0  0  0  0  0  0  0  0  0  0  0  0
   -5.6201   -2.2043   -1.5473 H   0  0  0  0  0  0  0  0  0  0  0  0
   -8.0736   -2.3312   -1.6172 H   0  0  0  0  0  0  0  0  0  0  0  0
   -9.7958   -2.5416    1.5419 H   0  0  0  0  0  0  0  0  0  0  0  0
  -13.7950   -1.5668    1.2677 H   0  0  0  0  0  0  0  0  0  0  0  0
  -15.7045   -0.4167    2.3473 H   0  0  0  0  0  0  0  0  0  0  0  0
  -16.3303   -5.0111    0.5052 H   0  0  0  0  0  0  0  0  0  0  0  0
  -19.6601   -2.9053    3.0561 H   0  0  0  0  0  0  0  0  0  0  0  0
  -19.8432   -2.2313    1.4174 H   0  0  0  0  0  0  0  0  0  0  0  0
  -14.8648   -5.3668   -1.4503 H   0  0  0  0  0  0  0  0  0  0  0  0
  -10.6832   -6.1775   -2.3000 H   0  0  0  0  0  0  0  0  0  0  0  0
   -9.0586   -5.8814   -1.8476 H   0  0  0  0  0  0  0  0  0  0  0  0
   -7.9745   -5.5465    1.2556 H   0  0  0  0  0  0  0  0  0  0  0  0
   -5.5180   -5.4381    1.3017 H   0  0  0  0  0  0  0  0  0  0  0  0
    0.5979   -2.2914    0.7198 H   0  0  0  0  0  0  0  0  0  0  0  0
  1  2  1  0  0  0  0
  1 37  1  0  0  0  0
  1 38  1  0  0  0  0
  1 39  1  0  0  0  0
  2  3  1  0  0  0  0
  2 36  2  0  0  0  0
  3  4  2  0  0  0  0
  3 40  1  0  0  0  0
  4  5  1  0  0  0  0
  4 41  1  0  0  0  0
  5  6  2  0  0  0  0
  5 42  1  0  0  0  0
  6  7  1  0  0  0  0
  6 36  1  0  0  0  0
  7  8  1  0  0  0  0
  7 43  1  0  0  0  0
  8  9  2  0  0  0  0
  8 10  1  0  0  0  0
 10 11  1  0  0  0  0
 10 44  1  0  0  0  0
 11 12  1  0  0  0  0
 11 35  2  0  0  0  0
 12 13  2  0  0  0  0
 12 45  1  0  0  0  0
 13 14  1  0  0  0  0
 13 46  1  0  0  0  0
 14 15  1  0  0  0  0
 14 34  2  0  0  0  0
 15 16  1  0  0  0  0
 15 32  2  0  0  0  0
 16 17  2  0  0  0  0
 16 47  1  0  0  0  0
 17 18  1  0  0  0  0
 18 19  2  0  0  0  0
 18 31  1  0  0  0  0
 19 20  1  0  0  0  0
 19 29  1  0  0  0  0
 20 21  1  0  0  0  0
 20 25  2  0  0  0  0
 21 22  2  0  0  0  0
 21 48  1  0  0  0  0
 22 23  1  0  0  0  0
 22 49  1  0  0  0  0
 23 24  2  0  0  0  0
 23 28  1  0  0  0  0
 24 25  1  0  0  0  0
 24 26  1  0  0  0  0
 25 50  1  0  0  0  0
 26 27  1  0  0  0  0
 27 28  1  0  0  0  0
 27 51  1  0  0  0  0
 27 52  1  0  0  0  0
 29 30  2  0  0  0  0
 29 53  1  0  0  0  0
 30 31  1  0  0  0  0
 31 32  1  0  0  0  0
 32 33  1  0  0  0  0
 33 54  1  0  0  0  0
 33 55  1  0  0  0  0
 34 35  1  0  0  0  0
 34 56  1  0  0  0  0
 35 57  1  0  0  0  0
 36 58  1  0  0  0  0
M  END
$$$$
