CHEMBL3986725
 OpenBabel04072215373D

 59 62  0  0  0  0  0  0  0  0999 V2000
    6.2556   -2.4080   -2.7972 C   0  0  0  0  0  0  0  0  0  0  0  0
    5.0356   -2.2137   -3.6842 C   0  0  0  0  0  0  0  0  0  0  0  0
    4.0190   -1.2894   -3.0863 C   0  0  0  0  0  0  0  0  0  0  0  0
    2.9226   -1.5344   -2.2652 C   0  0  0  0  0  0  0  0  0  0  0  0
    2.5562   -2.8181   -1.6933 C   0  0  0  0  0  0  0  0  0  0  0  0
    1.2600   -3.1426   -1.3385 C   0  0  0  0  0  0  0  0  0  0  0  0
    0.9343   -4.3168   -0.7332 N   0  0  0  0  0  0  0  0  0  0  0  0
    1.9496   -5.1738   -0.4922 C   0  0  0  0  0  0  0  0  0  0  0  0
    1.7349   -6.3926    0.1327 C   0  0  0  0  0  0  0  0  0  0  0  0
    2.7826   -7.3048    0.3411 C   0  0  0  0  0  0  0  0  0  0  0  0
    4.0956   -7.0184   -0.0660 C   0  0  0  0  0  0  0  0  0  0  0  0
    5.1254   -7.9791    0.0871 N   0  0  0  0  0  0  0  0  0  0  0  0
    6.5135   -7.4972    0.3366 C   0  0  0  0  0  0  0  0  0  0  0  0
    7.4404   -7.6008   -0.8910 C   0  0  0  0  0  0  0  0  0  0  0  0
    7.1455   -6.6462   -1.9067 O   0  0  0  0  0  0  0  0  0  0  0  0
    4.9955   -9.3749   -0.1565 C   0  0  0  0  0  0  0  0  0  0  0  0
    4.1370   -9.8414   -1.1688 C   0  0  0  0  0  0  0  0  0  0  0  0
    4.0339  -11.2021   -1.4694 C   0  0  0  0  0  0  0  0  0  0  0  0
    3.2461  -11.7506   -2.4452 O   0  0  0  0  0  0  0  0  0  0  0  0
    2.4630  -10.8518   -3.2213 C   0  0  0  0  0  0  0  0  0  0  0  0
    4.7950  -12.1273   -0.7528 C   0  0  0  0  0  0  0  0  0  0  0  0
    5.6549  -11.7008    0.2539 C   0  0  0  0  0  0  0  0  0  0  0  0
    6.4839  -12.4976    0.9961 O   0  0  0  0  0  0  0  0  0  0  0  0
    6.4905  -13.8860    0.6853 C   0  0  0  0  0  0  0  0  0  0  0  0
    5.7302  -10.3370    0.5590 C   0  0  0  0  0  0  0  0  0  0  0  0
    4.3051   -5.7622   -0.6425 C   0  0  0  0  0  0  0  0  0  0  0  0
    3.2755   -4.8518   -0.8731 C   0  0  0  0  0  0  0  0  0  0  0  0
    3.5668   -3.6849   -1.4633 N   0  0  0  0  0  0  0  0  0  0  0  0
    2.3141   -0.2689   -2.1090 C   0  0  0  0  0  0  0  0  0  0  0  0
    2.9666    0.7015   -2.7491 N   0  0  0  0  0  0  0  0  0  0  0  0
    4.0175    0.0690   -3.3039 N   0  0  0  0  0  0  0  0  0  0  0  0
    4.9982    0.8469   -4.0272 C   0  0  0  0  0  0  0  0  0  0  0  0
    6.9609   -3.0941   -3.2779 H   0  0  0  0  0  0  0  0  0  0  0  0
    5.9919   -2.8321   -1.8238 H   0  0  0  0  0  0  0  0  0  0  0  0
    6.7733   -1.4616   -2.6147 H   0  0  0  0  0  0  0  0  0  0  0  0
    4.5729   -3.1869   -3.8878 H   0  0  0  0  0  0  0  0  0  0  0  0
    5.3604   -1.8375   -4.6608 H   0  0  0  0  0  0  0  0  0  0  0  0
    0.4245   -2.4755   -1.5274 H   0  0  0  0  0  0  0  0  0  0  0  0
    0.7302   -6.6387    0.4590 H   0  0  0  0  0  0  0  0  0  0  0  0
    2.5605   -8.2366    0.8523 H   0  0  0  0  0  0  0  0  0  0  0  0
    6.9675   -8.0805    1.1454 H   0  0  0  0  0  0  0  0  0  0  0  0
    6.5062   -6.4695    0.7182 H   0  0  0  0  0  0  0  0  0  0  0  0
    7.4329   -8.5976   -1.3426 H   0  0  0  0  0  0  0  0  0  0  0  0
    8.4668   -7.3979   -0.5681 H   0  0  0  0  0  0  0  0  0  0  0  0
    6.4806   -7.0558   -2.4886 H   0  0  0  0  0  0  0  0  0  0  0  0
    3.5766   -9.1113   -1.7408 H   0  0  0  0  0  0  0  0  0  0  0  0
    1.9227  -11.4407   -3.9683 H   0  0  0  0  0  0  0  0  0  0  0  0
    3.0942  -10.1357   -3.7567 H   0  0  0  0  0  0  0  0  0  0  0  0
    1.7223  -10.3397   -2.5975 H   0  0  0  0  0  0  0  0  0  0  0  0
    4.6962  -13.1755   -1.0139 H   0  0  0  0  0  0  0  0  0  0  0  0
    7.3264  -14.3455    1.2216 H   0  0  0  0  0  0  0  0  0  0  0  0
    6.6527  -14.0686   -0.3822 H   0  0  0  0  0  0  0  0  0  0  0  0
    5.5646  -14.3560    1.0314 H   0  0  0  0  0  0  0  0  0  0  0  0
    6.3703  -10.0493    1.3883 H   0  0  0  0  0  0  0  0  0  0  0  0
    5.2915   -5.4581   -0.9737 H   0  0  0  0  0  0  0  0  0  0  0  0
    1.4294   -0.0061   -1.5440 H   0  0  0  0  0  0  0  0  0  0  0  0
    4.6997    1.8989   -4.0322 H   0  0  0  0  0  0  0  0  0  0  0  0
    5.0514    0.4763   -5.0530 H   0  0  0  0  0  0  0  0  0  0  0  0
    5.9624    0.7422   -3.5236 H   0  0  0  0  0  0  0  0  0  0  0  0
  1  2  1  0  0  0  0
  1 33  1  0  0  0  0
  1 34  1  0  0  0  0
  1 35  1  0  0  0  0
  2  3  1  0  0  0  0
  2 36  1  0  0  0  0
  2 37  1  0  0  0  0
  3  4  2  0  0  0  0
  3 31  1  0  0  0  0
  4  5  1  0  0  0  0
  4 29  1  0  0  0  0
  5  6  1  0  0  0  0
  5 28  2  0  0  0  0
  6  7  2  0  0  0  0
  6 38  1  0  0  0  0
  7  8  1  0  0  0  0
  8  9  1  0  0  0  0
  8 27  2  0  0  0  0
  9 10  2  0  0  0  0
  9 39  1  0  0  0  0
 10 11  1  0  0  0  0
 10 40  1  0  0  0  0
 11 12  1  0  0  0  0
 11 26  2  0  0  0  0
 12 13  1  0  0  0  0
 12 16  1  0  0  0  0
 13 14  1  0  0  0  0
 13 41  1  0  0  0  0
 13 42  1  0  0  0  0
 14 15  1  0  0  0  0
 14 43  1  0  0  0  0
 14 44  1  0  0  0  0
 15 45  1  0  0  0  0
 16 17  1  0  0  0  0
 16 25  2  0  0  0  0
 17 18  2  0  0  0  0
 17 46  1  0  0  0  0
 18 19  1  0  0  0  0
 18 21  1  0  0  0  0
 19 20  1  0  0  0  0
 20 47  1  0  0  0  0
 20 48  1  0  0  0  0
 20 49  1  0  0  0  0
 21 22  2  0  0  0  0
 21 50  1  0  0  0  0
 22 23  1  0  0  0  0
 22 25  1  0  0  0  0
 23 24  1  0  0  0  0
 24 51  1  0  0  0  0
 24 52  1  0  0  0  0
 24 53  1  0  0  0  0
 25 54  1  0  0  0  0
 26 27  1  0  0  0  0
 26 55  1  0  0  0  0
 27 28  1  0  0  0  0
 29 30  2  0  0  0  0
 29 56  1  0  0  0  0
 30 31  1  0  0  0  0
 31 32  1  0  0  0  0
 32 57  1  0  0  0  0
 32 58  1  0  0  0  0
 32 59  1  0  0  0  0
M  END
$$$$
