CHEMBL3623375
 OpenBabel04072215373D

 67 70  0  0  0  0  0  0  0  0999 V2000
   11.1250   -1.5115    4.2823 C   0  0  0  0  0  0  0  0  0  0  0  0
   10.9209   -1.1723    2.8703 N   0  0  0  0  0  0  0  0  0  0  0  0
   10.9453   -2.4019    2.0689 C   0  0  0  0  0  0  0  0  0  0  0  0
    9.6501   -0.4563    2.6568 C   0  0  0  0  0  0  0  0  0  0  0  0
    9.5732    0.9233    3.3299 C   0  0  0  0  0  0  0  0  0  0  0  0
   10.7029    1.8747    2.9355 C   0  0  0  0  0  0  0  0  0  0  0  0
   10.6680    2.2355    1.5306 N   0  0  0  0  0  0  0  0  0  0  0  0
    9.8722    3.2475    1.0572 C   0  0  0  0  0  0  0  0  0  0  0  0
    9.1823    3.9574    1.7792 O   0  0  0  0  0  0  0  0  0  0  0  0
    9.9036    3.4645   -0.4029 C   0  0  0  0  0  0  0  0  0  0  0  0
    9.6449    4.6827   -0.9216 C   0  0  0  0  0  0  0  0  0  0  0  0
    9.7273    4.7231   -2.6915 S   0  0  0  0  0  0  0  0  0  0  0  0
   10.0991    3.0279   -2.6718 C   0  0  0  0  0  0  0  0  0  0  0  0
   10.3415    2.1328   -3.5897 N   0  0  0  0  0  0  0  0  0  0  0  0
   10.5582    0.9840   -2.8523 C   0  0  0  0  0  0  0  0  0  0  0  0
   10.9012   -0.3031   -3.4174 C   0  0  0  0  0  0  0  0  0  0  0  0
   11.6383   -1.2266   -2.6654 C   0  0  0  0  0  0  0  0  0  0  0  0
   11.9632   -2.4766   -3.1837 C   0  0  0  0  0  0  0  0  0  0  0  0
   11.5632   -2.8166   -4.4689 C   0  0  0  0  0  0  0  0  0  0  0  0
   11.8564   -4.0497   -5.0572 N   0  0  0  0  0  0  0  0  0  0  0  0
   12.5104   -5.1328   -4.5306 C   0  0  0  0  0  0  0  0  0  0  0  0
   12.9876   -5.2205   -3.4012 O   0  0  0  0  0  0  0  0  0  0  0  0
   12.5719   -6.2390   -5.3400 N   0  0  0  0  0  0  0  0  0  0  0  0
   12.1558   -6.3289   -6.6492 C   0  0  0  0  0  0  0  0  0  0  0  0
   12.0301   -7.5245   -7.3830 C   0  0  0  0  0  0  0  0  0  0  0  0
   11.5398   -7.1270   -8.6075 C   0  0  0  0  0  0  0  0  0  0  0  0
   11.1159   -7.8546   -9.8477 C   0  0  0  0  0  0  0  0  0  0  0  0
    9.8968   -8.7324   -9.5176 C   0  0  0  0  0  0  0  0  0  0  0  0
   10.7284   -6.8744  -10.9723 C   0  0  0  0  0  0  0  0  0  0  0  0
   12.2787   -8.7322  -10.3359 C   0  0  0  0  0  0  0  0  0  0  0  0
   11.4197   -5.7750   -8.6136 O   0  0  0  0  0  0  0  0  0  0  0  0
   11.7938   -5.2782   -7.3940 N   0  0  0  0  0  0  0  0  0  0  0  0
   10.8321   -1.8963   -5.2339 C   0  0  0  0  0  0  0  0  0  0  0  0
   10.5051   -0.6412   -4.7131 C   0  0  0  0  0  0  0  0  0  0  0  0
   10.3949    1.2127   -1.4948 C   0  0  0  0  0  0  0  0  0  0  0  0
   10.1423    2.5448   -1.3980 N   0  0  0  0  0  0  0  0  0  0  0  0
   12.0677   -2.0548    4.4137 H   0  0  0  0  0  0  0  0  0  0  0  0
   10.3124   -2.1291    4.6812 H   0  0  0  0  0  0  0  0  0  0  0  0
   11.2130   -0.6112    4.8982 H   0  0  0  0  0  0  0  0  0  0  0  0
   11.8871   -2.9420    2.2193 H   0  0  0  0  0  0  0  0  0  0  0  0
   10.8885   -2.1659    1.0006 H   0  0  0  0  0  0  0  0  0  0  0  0
   10.1187   -3.0765    2.3208 H   0  0  0  0  0  0  0  0  0  0  0  0
    8.8042   -1.0651    3.0035 H   0  0  0  0  0  0  0  0  0  0  0  0
    9.5015   -0.3094    1.5792 H   0  0  0  0  0  0  0  0  0  0  0  0
    9.5730    0.8054    4.4197 H   0  0  0  0  0  0  0  0  0  0  0  0
    8.6065    1.3758    3.0759 H   0  0  0  0  0  0  0  0  0  0  0  0
   11.6850    1.4349    3.1365 H   0  0  0  0  0  0  0  0  0  0  0  0
   10.6266    2.7914    3.5308 H   0  0  0  0  0  0  0  0  0  0  0  0
   11.2932    1.7265    0.9222 H   0  0  0  0  0  0  0  0  0  0  0  0
    9.4090    5.5705   -0.3479 H   0  0  0  0  0  0  0  0  0  0  0  0
   11.9877   -0.9869   -1.6650 H   0  0  0  0  0  0  0  0  0  0  0  0
   12.5375   -3.1550   -2.5631 H   0  0  0  0  0  0  0  0  0  0  0  0
   11.5507   -4.1616   -6.0192 H   0  0  0  0  0  0  0  0  0  0  0  0
   12.9392   -7.0645   -4.8907 H   0  0  0  0  0  0  0  0  0  0  0  0
   12.2190   -8.5360   -7.0572 H   0  0  0  0  0  0  0  0  0  0  0  0
    9.0444   -8.1202   -9.1973 H   0  0  0  0  0  0  0  0  0  0  0  0
   10.1134   -9.4352   -8.7043 H   0  0  0  0  0  0  0  0  0  0  0  0
    9.5811   -9.3167  -10.3882 H   0  0  0  0  0  0  0  0  0  0  0  0
    9.8805   -6.2427  -10.6791 H   0  0  0  0  0  0  0  0  0  0  0  0
   10.4410   -7.4093  -11.8839 H   0  0  0  0  0  0  0  0  0  0  0  0
   11.5608   -6.2065  -11.2259 H   0  0  0  0  0  0  0  0  0  0  0  0
   12.5821   -9.4596   -9.5737 H   0  0  0  0  0  0  0  0  0  0  0  0
   13.1593   -8.1224  -10.5727 H   0  0  0  0  0  0  0  0  0  0  0  0
   12.0035   -9.2900  -11.2371 H   0  0  0  0  0  0  0  0  0  0  0  0
   10.5048   -2.1453   -6.2413 H   0  0  0  0  0  0  0  0  0  0  0  0
    9.9366    0.0623   -5.3180 H   0  0  0  0  0  0  0  0  0  0  0  0
   10.4345    0.5474   -0.6464 H   0  0  0  0  0  0  0  0  0  0  0  0
  1  2  1  0  0  0  0
  1 37  1  0  0  0  0
  1 38  1  0  0  0  0
  1 39  1  0  0  0  0
  2  3  1  0  0  0  0
  2  4  1  0  0  0  0
  3 40  1  0  0  0  0
  3 41  1  0  0  0  0
  3 42  1  0  0  0  0
  4  5  1  0  0  0  0
  4 43  1  0  0  0  0
  4 44  1  0  0  0  0
  5  6  1  0  0  0  0
  5 45  1  0  0  0  0
  5 46  1  0  0  0  0
  6  7  1  0  0  0  0
  6 47  1  0  0  0  0
  6 48  1  0  0  0  0
  7  8  1  0  0  0  0
  7 49  1  0  0  0  0
  8  9  2  0  0  0  0
  8 10  1  0  0  0  0
 10 11  2  0  0  0  0
 10 36  1  0  0  0  0
 11 12  1  0  0  0  0
 11 50  1  0  0  0  0
 12 13  1  0  0  0  0
 13 14  2  0  0  0  0
 13 36  1  0  0  0  0
 14 15  1  0  0  0  0
 15 16  1  0  0  0  0
 15 35  2  0  0  0  0
 16 17  1  0  0  0  0
 16 34  2  0  0  0  0
 17 18  2  0  0  0  0
 17 51  1  0  0  0  0
 18 19  1  0  0  0  0
 18 52  1  0  0  0  0
 19 20  1  0  0  0  0
 19 33  2  0  0  0  0
 20 21  1  0  0  0  0
 20 53  1  0  0  0  0
 21 22  2  0  0  0  0
 21 23  1  0  0  0  0
 23 24  1  0  0  0  0
 23 54  1  0  0  0  0
 24 25  1  0  0  0  0
 24 32  2  0  0  0  0
 25 26  2  0  0  0  0
 25 55  1  0  0  0  0
 26 27  1  0  0  0  0
 26 31  1  0  0  0  0
 27 28  1  0  0  0  0
 27 29  1  0  0  0  0
 27 30  1  0  0  0  0
 28 56  1  0  0  0  0
 28 57  1  0  0  0  0
 28 58  1  0  0  0  0
 29 59  1  0  0  0  0
 29 60  1  0  0  0  0
 29 61  1  0  0  0  0
 30 62  1  0  0  0  0
 30 63  1  0  0  0  0
 30 64  1  0  0  0  0
 31 32  1  0  0  0  0
 33 34  1  0  0  0  0
 33 65  1  0  0  0  0
 34 66  1  0  0  0  0
 35 36  1  0  0  0  0
 35 67  1  0  0  0  0
M  END
$$$$
