CHEMBL404718
 OpenBabel04072215373D

 54 59  0  0  0  0  0  0  0  0999 V2000
    0.8598    0.1793   -0.9492 C   0  0  0  0  0  0  0  0  0  0  0  0
    2.3619    0.3037   -0.8169 C   0  0  0  0  0  0  0  0  0  0  0  0
    2.6354    1.5063   -0.0958 O   0  0  0  0  0  0  0  0  0  0  0  0
    4.0111    1.5817    0.1215 N   0  0  0  0  0  0  0  0  0  0  0  0
    4.3880    2.7393    0.5822 C   0  0  0  0  0  0  0  0  0  0  0  0
    3.4746    3.8951    0.8855 C   0  0  0  0  0  0  0  0  0  0  0  0
    5.8515    3.0103    0.6709 C   0  0  0  0  0  0  0  0  0  0  0  0
    6.5825    2.3753   -0.3366 C   0  0  0  0  0  0  0  0  0  0  0  0
    7.8695    2.7570   -0.5962 C   0  0  0  0  0  0  0  0  0  0  0  0
    8.3730    3.7667    0.2060 C   0  0  0  0  0  0  0  0  0  0  0  0
    9.5411    4.4253   -0.0336 N   0  0  0  0  0  0  0  0  0  0  0  0
    9.9527    5.0776    1.0883 C   0  0  0  0  0  0  0  0  0  0  0  0
   11.2354    5.5153    1.3614 C   0  0  0  0  0  0  0  0  0  0  0  0
   11.5463    5.9522    2.6785 C   0  0  0  0  0  0  0  0  0  0  0  0
   10.3780    6.1745    3.4892 C   0  0  0  0  0  0  0  0  0  0  0  0
    9.0194    5.7466    3.1235 C   0  0  0  0  0  0  0  0  0  0  0  0
    8.8684    5.0667    1.8963 C   0  0  0  0  0  0  0  0  0  0  0  0
    7.8022    4.3032    1.3653 C   0  0  0  0  0  0  0  0  0  0  0  0
    6.4442    3.9431    1.5856 C   0  0  0  0  0  0  0  0  0  0  0  0
    7.9886    6.1796    4.0607 C   0  0  0  0  0  0  0  0  0  0  0  0
    8.8215    6.9948    4.9525 N   0  0  0  0  0  0  0  0  0  0  0  0
   10.1973    7.0149    4.6676 C   0  0  0  0  0  0  0  0  0  0  0  0
   10.9515    7.7513    5.2912 O   0  0  0  0  0  0  0  0  0  0  0  0
   12.9482    5.4709    3.0821 C   0  0  0  0  0  0  0  0  0  0  0  0
   14.1761    6.1768    3.0545 C   0  0  0  0  0  0  0  0  0  0  0  0
   15.2047    5.2321    2.8339 N   0  0  0  0  0  0  0  0  0  0  0  0
   16.4683    5.3420    2.1193 C   0  0  0  0  0  0  0  0  0  0  0  0
   14.6844    3.9916    2.8343 N   0  0  0  0  0  0  0  0  0  0  0  0
   13.4660    4.2972    2.3888 C   0  0  0  0  0  0  0  0  0  0  0  0
   13.2429    4.1284    0.9042 C   0  0  0  0  0  0  0  0  0  0  0  0
   12.3152    5.1975    0.3687 C   0  0  0  0  0  0  0  0  0  0  0  0
    0.5839   -0.7454   -1.4621 H   0  0  0  0  0  0  0  0  0  0  0  0
    0.4527    1.0299   -1.5060 H   0  0  0  0  0  0  0  0  0  0  0  0
    0.3923    0.1934    0.0406 H   0  0  0  0  0  0  0  0  0  0  0  0
    2.8283    0.3462   -1.8089 H   0  0  0  0  0  0  0  0  0  0  0  0
    2.7664   -0.5544   -0.2692 H   0  0  0  0  0  0  0  0  0  0  0  0
    2.4499    3.7103    0.5627 H   0  0  0  0  0  0  0  0  0  0  0  0
    3.8321    4.7855    0.3558 H   0  0  0  0  0  0  0  0  0  0  0  0
    3.4778    4.0828    1.9602 H   0  0  0  0  0  0  0  0  0  0  0  0
    6.1314    1.6420   -1.0014 H   0  0  0  0  0  0  0  0  0  0  0  0
    8.4437    2.3400   -1.4177 H   0  0  0  0  0  0  0  0  0  0  0  0
   10.0934    4.2636   -0.8611 H   0  0  0  0  0  0  0  0  0  0  0  0
    5.8694    4.3588    2.3971 H   0  0  0  0  0  0  0  0  0  0  0  0
    7.5242    5.3751    4.6282 H   0  0  0  0  0  0  0  0  0  0  0  0
    7.2360    6.8223    3.5904 H   0  0  0  0  0  0  0  0  0  0  0  0
    8.4256    7.6698    5.5879 H   0  0  0  0  0  0  0  0  0  0  0  0
   14.4204    7.2275    3.0149 H   0  0  0  0  0  0  0  0  0  0  0  0
   16.8462    6.3609    2.1220 H   0  0  0  0  0  0  0  0  0  0  0  0
   16.3117    5.0104    1.0806 H   0  0  0  0  0  0  0  0  0  0  0  0
   17.1869    4.6460    2.5693 H   0  0  0  0  0  0  0  0  0  0  0  0
   12.9113    3.1149    0.6715 H   0  0  0  0  0  0  0  0  0  0  0  0
   14.1869    4.2843    0.3609 H   0  0  0  0  0  0  0  0  0  0  0  0
   12.8147    6.1349    0.1014 H   0  0  0  0  0  0  0  0  0  0  0  0
   11.9052    4.8058   -0.5623 H   0  0  0  0  0  0  0  0  0  0  0  0
  1  2  1  0  0  0  0
  1 32  1  0  0  0  0
  1 33  1  0  0  0  0
  1 34  1  0  0  0  0
  2  3  1  0  0  0  0
  2 35  1  0  0  0  0
  2 36  1  0  0  0  0
  3  4  1  0  0  0  0
  4  5  2  0  0  0  0
  5  6  1  0  0  0  0
  5  7  1  0  0  0  0
  6 37  1  0  0  0  0
  6 38  1  0  0  0  0
  6 39  1  0  0  0  0
  7  8  1  0  0  0  0
  7 19  2  0  0  0  0
  8  9  2  0  0  0  0
  8 40  1  0  0  0  0
  9 10  1  0  0  0  0
  9 41  1  0  0  0  0
 10 11  1  0  0  0  0
 10 18  2  0  0  0  0
 11 12  1  0  0  0  0
 11 42  1  0  0  0  0
 12 13  1  0  0  0  0
 12 17  2  0  0  0  0
 13 14  2  0  0  0  0
 13 31  1  0  0  0  0
 14 15  1  0  0  0  0
 14 24  1  0  0  0  0
 15 16  2  0  0  0  0
 15 22  1  0  0  0  0
 16 17  1  0  0  0  0
 16 20  1  0  0  0  0
 17 18  1  0  0  0  0
 18 19  1  0  0  0  0
 19 43  1  0  0  0  0
 20 21  1  0  0  0  0
 20 44  1  0  0  0  0
 20 45  1  0  0  0  0
 21 22  1  0  0  0  0
 21 46  1  0  0  0  0
 22 23  2  0  0  0  0
 24 25  2  0  0  0  0
 24 29  1  0  0  0  0
 25 26  1  0  0  0  0
 25 47  1  0  0  0  0
 26 27  1  0  0  0  0
 26 28  1  0  0  0  0
 27 48  1  0  0  0  0
 27 49  1  0  0  0  0
 27 50  1  0  0  0  0
 28 29  2  0  0  0  0
 29 30  1  0  0  0  0
 30 31  1  0  0  0  0
 30 51  1  0  0  0  0
 30 52  1  0  0  0  0
 31 53  1  0  0  0  0
 31 54  1  0  0  0  0
M  END
$$$$
