CHEMBL147761
 OpenBabel04072215363D

 41 43  0  0  0  0  0  0  0  0999 V2000
    2.3756   -0.1887   -0.0090 C   0  0  0  0  0  0  0  0  0  0  0  0
    0.8904   -0.1111   -0.0354 C   0  0  0  0  0  0  0  0  0  0  0  0
    0.0349   -1.1955   -0.0407 C   0  0  0  0  0  0  0  0  0  0  0  0
   -1.2503   -0.7342   -0.0985 N   0  0  0  0  0  0  0  0  0  0  0  0
   -1.2450    0.6334   -0.0805 C   0  0  0  0  0  0  0  0  0  0  0  0
   -2.4794    1.2910    0.0643 C   0  0  0  0  0  0  0  0  0  0  0  0
   -3.2406    1.7974   -0.9141 C   0  0  0  0  0  0  0  0  0  0  0  0
   -3.0195    1.6975   -2.4030 C   0  0  0  0  0  0  0  0  0  0  0  0
   -2.1342    1.1267   -3.0077 O   0  0  0  0  0  0  0  0  0  0  0  0
   -4.0889    2.3782   -2.9655 N   0  0  0  0  0  0  0  0  0  0  0  0
   -4.9450    2.8871   -1.9919 C   0  0  0  0  0  0  0  0  0  0  0  0
   -6.0965    3.6146   -2.2216 C   0  0  0  0  0  0  0  0  0  0  0  0
   -6.8132    4.0495   -1.1086 C   0  0  0  0  0  0  0  0  0  0  0  0
   -6.3646    3.7561    0.1906 C   0  0  0  0  0  0  0  0  0  0  0  0
   -5.1887    3.0143    0.4153 C   0  0  0  0  0  0  0  0  0  0  0  0
   -4.7597    2.7538    1.8266 C   0  0  0  0  0  0  0  0  0  0  0  0
   -4.4839    2.5718   -0.7051 C   0  0  0  0  0  0  0  0  0  0  0  0
    0.0682    1.0698   -0.0537 C   0  0  0  0  0  0  0  0  0  0  0  0
    0.5345    2.5034   -0.0301 C   0  0  0  0  0  0  0  0  0  0  0  0
    0.0480    3.2767    1.1970 C   0  0  0  0  0  0  0  0  0  0  0  0
    0.4793    4.7211    1.1580 C   0  0  0  0  0  0  0  0  0  0  0  0
    1.1555    5.2401    0.2857 O   0  0  0  0  0  0  0  0  0  0  0  0
    0.0202    5.4207    2.2248 O   0  0  0  0  0  0  0  0  0  0  0  0
    2.7140   -1.2310   -0.0009 H   0  0  0  0  0  0  0  0  0  0  0  0
    2.7725    0.2992    0.8864 H   0  0  0  0  0  0  0  0  0  0  0  0
    2.8005    0.2948   -0.8936 H   0  0  0  0  0  0  0  0  0  0  0  0
    0.2351   -2.2585   -0.0216 H   0  0  0  0  0  0  0  0  0  0  0  0
   -2.0766   -1.3170   -0.1131 H   0  0  0  0  0  0  0  0  0  0  0  0
   -2.7691    1.4209    1.0981 H   0  0  0  0  0  0  0  0  0  0  0  0
   -4.2060    2.4749   -3.9626 H   0  0  0  0  0  0  0  0  0  0  0  0
   -6.4380    3.8470   -3.2240 H   0  0  0  0  0  0  0  0  0  0  0  0
   -7.7256    4.6264   -1.2395 H   0  0  0  0  0  0  0  0  0  0  0  0
   -6.9467    4.1210    1.0358 H   0  0  0  0  0  0  0  0  0  0  0  0
   -5.4527    3.1916    2.5512 H   0  0  0  0  0  0  0  0  0  0  0  0
   -3.7771    3.1996    2.0134 H   0  0  0  0  0  0  0  0  0  0  0  0
   -4.7309    1.6764    2.0243 H   0  0  0  0  0  0  0  0  0  0  0  0
    0.1814    2.9955   -0.9455 H   0  0  0  0  0  0  0  0  0  0  0  0
    1.6301    2.5415   -0.0681 H   0  0  0  0  0  0  0  0  0  0  0  0
    0.4412    2.8195    2.1118 H   0  0  0  0  0  0  0  0  0  0  0  0
   -1.0454    3.2736    1.2477 H   0  0  0  0  0  0  0  0  0  0  0  0
   -0.5068    4.8864    2.8484 H   0  0  0  0  0  0  0  0  0  0  0  0
  1  2  1  0  0  0  0
  1 24  1  0  0  0  0
  1 25  1  0  0  0  0
  1 26  1  0  0  0  0
  2  3  2  0  0  0  0
  2 18  1  0  0  0  0
  3  4  1  0  0  0  0
  3 27  1  0  0  0  0
  4  5  1  0  0  0  0
  4 28  1  0  0  0  0
  5  6  1  0  0  0  0
  5 18  2  0  0  0  0
  6  7  2  0  0  0  0
  6 29  1  0  0  0  0
  7  8  1  0  0  0  0
  7 17  1  0  0  0  0
  8  9  2  0  0  0  0
  8 10  1  0  0  0  0
 10 11  1  0  0  0  0
 10 30  1  0  0  0  0
 11 12  1  0  0  0  0
 11 17  2  0  0  0  0
 12 13  2  0  0  0  0
 12 31  1  0  0  0  0
 13 14  1  0  0  0  0
 13 32  1  0  0  0  0
 14 15  2  0  0  0  0
 14 33  1  0  0  0  0
 15 16  1  0  0  0  0
 15 17  1  0  0  0  0
 16 34  1  0  0  0  0
 16 35  1  0  0  0  0
 16 36  1  0  0  0  0
 18 19  1  0  0  0  0
 19 20  1  0  0  0  0
 19 37  1  0  0  0  0
 19 38  1  0  0  0  0
 20 21  1  0  0  0  0
 20 39  1  0  0  0  0
 20 40  1  0  0  0  0
 21 22  2  0  0  0  0
 21 23  1  0  0  0  0
 23 41  1  0  0  0  0
M  END
$$$$
