CHEMBL3656040
 OpenBabel04072215373D

 49 52  0  0  0  0  0  0  0  0999 V2000
    2.3715   -0.6314    0.2828 C   0  0  0  0  0  0  0  0  0  0  0  0
    0.9960   -0.2697   -0.1477 C   0  0  0  0  0  0  0  0  0  0  0  0
    0.5464    1.0122   -0.5699 C   0  0  0  0  0  0  0  0  0  0  0  0
   -0.7818    0.8784   -0.8806 C   0  0  0  0  0  0  0  0  0  0  0  0
   -1.1946   -0.3994   -0.6812 O   0  0  0  0  0  0  0  0  0  0  0  0
   -0.1122   -1.1068   -0.2232 C   0  0  0  0  0  0  0  0  0  0  0  0
   -0.2723   -2.5189    0.0940 C   0  0  0  0  0  0  0  0  0  0  0  0
    0.6488   -3.1760    0.5709 O   0  0  0  0  0  0  0  0  0  0  0  0
   -1.5272   -3.0218   -0.2265 N   0  0  0  0  0  0  0  0  0  0  0  0
   -1.9755   -4.3498   -0.0539 C   0  0  0  0  0  0  0  0  0  0  0  0
   -1.2865   -5.2870    0.7221 C   0  0  0  0  0  0  0  0  0  0  0  0
   -1.7099   -6.6143    0.7805 C   0  0  0  0  0  0  0  0  0  0  0  0
   -2.8408   -7.0166    0.0791 C   0  0  0  0  0  0  0  0  0  0  0  0
   -3.6088   -6.0714   -0.6039 C   0  0  0  0  0  0  0  0  0  0  0  0
   -4.7782   -6.3672   -1.2705 O   0  0  0  0  0  0  0  0  0  0  0  0
   -5.5824   -7.3971   -0.8273 C   0  0  0  0  0  0  0  0  0  0  0  0
   -5.7784   -7.7193    0.5131 C   0  0  0  0  0  0  0  0  0  0  0  0
   -6.5927   -8.7965    0.8120 C   0  0  0  0  0  0  0  0  0  0  0  0
   -7.2549   -9.5213   -0.1158 N   0  0  0  0  0  0  0  0  0  0  0  0
   -7.0991   -9.1458   -1.4105 C   0  0  0  0  0  0  0  0  0  0  0  0
   -7.8870   -9.9283   -2.3555 C   0  0  0  0  0  0  0  0  0  0  0  0
   -8.0234   -9.8613   -3.7325 C   0  0  0  0  0  0  0  0  0  0  0  0
   -8.9625  -10.8496   -4.1573 C   0  0  0  0  0  0  0  0  0  0  0  0
   -9.3887  -11.0820   -5.5326 C   0  0  0  0  0  0  0  0  0  0  0  0
   -8.9681  -10.4254   -6.4836 O   0  0  0  0  0  0  0  0  0  0  0  0
  -10.3126  -12.0836   -5.7112 N   0  0  0  0  0  0  0  0  0  0  0  0
  -10.7966  -12.2921   -7.0218 O   0  0  0  0  0  0  0  0  0  0  0  0
   -9.3642  -11.5076   -3.0064 C   0  0  0  0  0  0  0  0  0  0  0  0
   -8.7059  -10.9526   -1.9392 N   0  0  0  0  0  0  0  0  0  0  0  0
   -6.2792   -8.0994   -1.8060 C   0  0  0  0  0  0  0  0  0  0  0  0
   -3.1605   -4.7451   -0.6922 C   0  0  0  0  0  0  0  0  0  0  0  0
    3.0530    0.2190    0.1724 H   0  0  0  0  0  0  0  0  0  0  0  0
    2.7643   -1.4532   -0.3238 H   0  0  0  0  0  0  0  0  0  0  0  0
    2.3812   -0.9350    1.3336 H   0  0  0  0  0  0  0  0  0  0  0  0
    1.1280    1.9218   -0.6394 H   0  0  0  0  0  0  0  0  0  0  0  0
   -1.5406    1.5645   -1.2354 H   0  0  0  0  0  0  0  0  0  0  0  0
   -2.1308   -2.3812   -0.7275 H   0  0  0  0  0  0  0  0  0  0  0  0
   -0.4073   -5.0164    1.2966 H   0  0  0  0  0  0  0  0  0  0  0  0
   -1.1451   -7.3341    1.3670 H   0  0  0  0  0  0  0  0  0  0  0  0
   -3.1149   -8.0675    0.0937 H   0  0  0  0  0  0  0  0  0  0  0  0
   -5.3005   -7.1672    1.3131 H   0  0  0  0  0  0  0  0  0  0  0  0
   -6.7386   -9.1149    1.8409 H   0  0  0  0  0  0  0  0  0  0  0  0
   -7.5135   -9.1657   -4.3878 H   0  0  0  0  0  0  0  0  0  0  0  0
  -10.7484  -12.6048   -4.9641 H   0  0  0  0  0  0  0  0  0  0  0  0
  -10.3026  -11.6164   -7.5360 H   0  0  0  0  0  0  0  0  0  0  0  0
  -10.0576  -12.3194   -2.8385 H   0  0  0  0  0  0  0  0  0  0  0  0
   -8.7943  -11.2237   -0.9660 H   0  0  0  0  0  0  0  0  0  0  0  0
   -6.1769   -7.8261   -2.8499 H   0  0  0  0  0  0  0  0  0  0  0  0
   -3.7331   -4.0380   -1.2853 H   0  0  0  0  0  0  0  0  0  0  0  0
  1  2  1  0  0  0  0
  1 32  1  0  0  0  0
  1 33  1  0  0  0  0
  1 34  1  0  0  0  0
  2  3  1  0  0  0  0
  2  6  2  0  0  0  0
  3  4  2  0  0  0  0
  3 35  1  0  0  0  0
  4  5  1  0  0  0  0
  4 36  1  0  0  0  0
  5  6  1  0  0  0  0
  6  7  1  0  0  0  0
  7  8  2  0  0  0  0
  7  9  1  0  0  0  0
  9 10  1  0  0  0  0
  9 37  1  0  0  0  0
 10 11  1  0  0  0  0
 10 31  2  0  0  0  0
 11 12  2  0  0  0  0
 11 38  1  0  0  0  0
 12 13  1  0  0  0  0
 12 39  1  0  0  0  0
 13 14  2  0  0  0  0
 13 40  1  0  0  0  0
 14 15  1  0  0  0  0
 14 31  1  0  0  0  0
 15 16  1  0  0  0  0
 16 17  1  0  0  0  0
 16 30  2  0  0  0  0
 17 18  2  0  0  0  0
 17 41  1  0  0  0  0
 18 19  1  0  0  0  0
 18 42  1  0  0  0  0
 19 20  2  0  0  0  0
 20 21  1  0  0  0  0
 20 30  1  0  0  0  0
 21 22  2  0  0  0  0
 21 29  1  0  0  0  0
 22 23  1  0  0  0  0
 22 43  1  0  0  0  0
 23 24  1  0  0  0  0
 23 28  2  0  0  0  0
 24 25  2  0  0  0  0
 24 26  1  0  0  0  0
 26 27  1  0  0  0  0
 26 44  1  0  0  0  0
 27 45  1  0  0  0  0
 28 29  1  0  0  0  0
 28 46  1  0  0  0  0
 29 47  1  0  0  0  0
 30 48  1  0  0  0  0
 31 49  1  0  0  0  0
M  END
$$$$
