CHEMBL1240565
 OpenBabel04072215363D

 31 34  0  0  0  0  0  0  0  0999 V2000
    1.2264   -0.0518    0.1080 C   0  0  0  0  0  0  0  0  0  0  0  0
    2.6666   -0.0522    0.1055 N   0  0  0  0  0  0  0  0  0  0  0  0
    3.3473    1.1090    0.0821 N   0  0  0  0  0  0  0  0  0  0  0  0
    4.6419    0.7371    0.0071 C   0  0  0  0  0  0  0  0  0  0  0  0
    5.6777    1.7622   -0.1334 C   0  0  0  0  0  0  0  0  0  0  0  0
    6.8341    1.5370   -0.8812 C   0  0  0  0  0  0  0  0  0  0  0  0
    7.8611    2.4053   -1.0688 N   0  0  0  0  0  0  0  0  0  0  0  0
    7.6302    3.6034   -0.5068 C   0  0  0  0  0  0  0  0  0  0  0  0
    8.4825    4.6690   -0.5879 N   0  0  0  0  0  0  0  0  0  0  0  0
    7.9232    5.7577    0.0311 C   0  0  0  0  0  0  0  0  0  0  0  0
    6.7063    5.3668    0.5525 C   0  0  0  0  0  0  0  0  0  0  0  0
    6.5134    3.9979    0.2202 C   0  0  0  0  0  0  0  0  0  0  0  0
    5.5080    3.0380    0.4308 C   0  0  0  0  0  0  0  0  0  0  0  0
    4.7687   -0.6912    0.0623 C   0  0  0  0  0  0  0  0  0  0  0  0
    5.7716   -1.6734    0.0707 C   0  0  0  0  0  0  0  0  0  0  0  0
    7.1366   -1.4310    0.0876 N   0  0  0  0  0  0  0  0  0  0  0  0
    5.4081   -2.9740    0.0734 N   0  0  0  0  0  0  0  0  0  0  0  0
    4.0974   -3.2808    0.0859 C   0  0  0  0  0  0  0  0  0  0  0  0
    3.0564   -2.4382    0.1120 N   0  0  0  0  0  0  0  0  0  0  0  0
    3.4638   -1.1570    0.0976 C   0  0  0  0  0  0  0  0  0  0  0  0
    0.8603    0.9785    0.1077 H   0  0  0  0  0  0  0  0  0  0  0  0
    0.8793   -0.5652    1.0094 H   0  0  0  0  0  0  0  0  0  0  0  0
    0.8762   -0.5687   -0.7875 H   0  0  0  0  0  0  0  0  0  0  0  0
    6.9797    0.5977   -1.4106 H   0  0  0  0  0  0  0  0  0  0  0  0
    9.3696    4.6372   -1.0687 H   0  0  0  0  0  0  0  0  0  0  0  0
    8.4340    6.7111    0.0399 H   0  0  0  0  0  0  0  0  0  0  0  0
    6.0199    6.0040    1.0945 H   0  0  0  0  0  0  0  0  0  0  0  0
    4.6115    3.2909    0.9893 H   0  0  0  0  0  0  0  0  0  0  0  0
    7.4298   -0.6330    0.6387 H   0  0  0  0  0  0  0  0  0  0  0  0
    7.6404   -2.2901    0.2845 H   0  0  0  0  0  0  0  0  0  0  0  0
    3.8588   -4.3404    0.0785 H   0  0  0  0  0  0  0  0  0  0  0  0
  1  2  1  0  0  0  0
  1 21  1  0  0  0  0
  1 22  1  0  0  0  0
  1 23  1  0  0  0  0
  2  3  1  0  0  0  0
  2 20  1  0  0  0  0
  3  4  2  0  0  0  0
  4  5  1  0  0  0  0
  4 14  1  0  0  0  0
  5  6  1  0  0  0  0
  5 13  2  0  0  0  0
  6  7  2  0  0  0  0
  6 24  1  0  0  0  0
  7  8  1  0  0  0  0
  8  9  1  0  0  0  0
  8 12  2  0  0  0  0
  9 10  1  0  0  0  0
  9 25  1  0  0  0  0
 10 11  2  0  0  0  0
 10 26  1  0  0  0  0
 11 12  1  0  0  0  0
 11 27  1  0  0  0  0
 12 13  1  0  0  0  0
 13 28  1  0  0  0  0
 14 15  1  0  0  0  0
 14 20  2  0  0  0  0
 15 16  1  0  0  0  0
 15 17  2  0  0  0  0
 16 29  1  0  0  0  0
 16 30  1  0  0  0  0
 17 18  1  0  0  0  0
 18 19  2  0  0  0  0
 18 31  1  0  0  0  0
 19 20  1  0  0  0  0
M  END
$$$$
