CHEMBL203149
 OpenBabel04072215363D

 43 46  0  0  0  0  0  0  0  0999 V2000
    0.2737   -1.4768    0.1700 O   0  0  0  0  0  0  0  0  0  0  0  0
    1.3470   -1.6828    0.7345 C   0  0  0  0  0  0  0  0  0  0  0  0
    1.4792   -1.6287    2.1156 N   0  0  0  0  0  0  0  0  0  0  0  0
    0.4008   -1.4354    3.0114 C   0  0  0  0  0  0  0  0  0  0  0  0
   -0.9284   -1.7053    2.6577 C   0  0  0  0  0  0  0  0  0  0  0  0
   -1.9808   -1.4152    3.5273 C   0  0  0  0  0  0  0  0  0  0  0  0
   -1.7059   -0.8696    4.7734 C   0  0  0  0  0  0  0  0  0  0  0  0
   -3.0013   -0.4649    5.8283 Cl  0  0  0  0  0  0  0  0  0  0  0  0
   -0.3866   -0.6482    5.1658 C   0  0  0  0  0  0  0  0  0  0  0  0
    0.6685   -0.9430    4.2913 C   0  0  0  0  0  0  0  0  0  0  0  0
    2.5487   -1.9492   -0.0410 C   0  0  0  0  0  0  0  0  0  0  0  0
    4.0966   -2.1851    0.6611 S   0  0  0  0  0  0  0  0  0  0  0  0
    4.7676   -2.3841   -0.9019 C   0  0  0  0  0  0  0  0  0  0  0  0
    3.9253   -2.2907   -1.9073 N   0  0  0  0  0  0  0  0  0  0  0  0
    2.6432   -2.0513   -1.4278 C   0  0  0  0  0  0  0  0  0  0  0  0
    1.5171   -1.8722   -2.4168 C   0  0  0  0  0  0  0  0  0  0  0  0
    1.6497   -2.7105   -3.6850 C   0  0  0  0  0  0  0  0  0  0  0  0
    0.4643   -2.5263   -4.6171 C   0  0  0  0  0  0  0  0  0  0  0  0
    0.5284   -1.4908   -5.5562 C   0  0  0  0  0  0  0  0  0  0  0  0
   -0.5054   -1.3462   -6.4597 C   0  0  0  0  0  0  0  0  0  0  0  0
   -1.5813   -2.1546   -6.5040 N   0  0  0  0  0  0  0  0  0  0  0  0
   -1.6691   -3.1379   -5.5946 C   0  0  0  0  0  0  0  0  0  0  0  0
   -2.7728   -3.9781   -5.6567 C   0  0  0  0  0  0  0  0  0  0  0  0
   -2.9639   -5.0167   -4.7450 C   0  0  0  0  0  0  0  0  0  0  0  0
   -2.0419   -5.2100   -3.7272 C   0  0  0  0  0  0  0  0  0  0  0  0
   -0.9159   -4.3881   -3.6500 C   0  0  0  0  0  0  0  0  0  0  0  0
   -0.6891   -3.3575   -4.5946 C   0  0  0  0  0  0  0  0  0  0  0  0
    2.4204   -1.5660    2.4872 H   0  0  0  0  0  0  0  0  0  0  0  0
   -1.1868   -2.1505    1.7008 H   0  0  0  0  0  0  0  0  0  0  0  0
   -3.0019   -1.6083    3.2113 H   0  0  0  0  0  0  0  0  0  0  0  0
   -0.1743   -0.2268    6.1452 H   0  0  0  0  0  0  0  0  0  0  0  0
    1.6862   -0.7373    4.6116 H   0  0  0  0  0  0  0  0  0  0  0  0
    5.8233   -2.5734   -1.0526 H   0  0  0  0  0  0  0  0  0  0  0  0
    1.4539   -0.8060   -2.6696 H   0  0  0  0  0  0  0  0  0  0  0  0
    0.5639   -2.1441   -1.9557 H   0  0  0  0  0  0  0  0  0  0  0  0
    1.7752   -3.7712   -3.4377 H   0  0  0  0  0  0  0  0  0  0  0  0
    2.5670   -2.4386   -4.2236 H   0  0  0  0  0  0  0  0  0  0  0  0
    1.3755   -0.8137   -5.5941 H   0  0  0  0  0  0  0  0  0  0  0  0
   -0.4902   -0.5577   -7.2064 H   0  0  0  0  0  0  0  0  0  0  0  0
   -3.5050   -3.8212   -6.4459 H   0  0  0  0  0  0  0  0  0  0  0  0
   -3.8341   -5.6618   -4.8314 H   0  0  0  0  0  0  0  0  0  0  0  0
   -2.1930   -6.0009   -2.9971 H   0  0  0  0  0  0  0  0  0  0  0  0
   -0.2185   -4.5589   -2.8344 H   0  0  0  0  0  0  0  0  0  0  0  0
  1  2  2  0  0  0  0
  2  3  1  0  0  0  0
  2 11  1  0  0  0  0
  3  4  1  0  0  0  0
  3 28  1  0  0  0  0
  4  5  1  0  0  0  0
  4 10  2  0  0  0  0
  5  6  2  0  0  0  0
  5 29  1  0  0  0  0
  6  7  1  0  0  0  0
  6 30  1  0  0  0  0
  7  8  1  0  0  0  0
  7  9  2  0  0  0  0
  9 10  1  0  0  0  0
  9 31  1  0  0  0  0
 10 32  1  0  0  0  0
 11 12  1  0  0  0  0
 11 15  2  0  0  0  0
 12 13  1  0  0  0  0
 13 14  2  0  0  0  0
 13 33  1  0  0  0  0
 14 15  1  0  0  0  0
 15 16  1  0  0  0  0
 16 17  1  0  0  0  0
 16 34  1  0  0  0  0
 16 35  1  0  0  0  0
 17 18  1  0  0  0  0
 17 36  1  0  0  0  0
 17 37  1  0  0  0  0
 18 19  1  0  0  0  0
 18 27  2  0  0  0  0
 19 20  2  0  0  0  0
 19 38  1  0  0  0  0
 20 21  1  0  0  0  0
 20 39  1  0  0  0  0
 21 22  2  0  0  0  0
 22 23  1  0  0  0  0
 22 27  1  0  0  0  0
 23 24  2  0  0  0  0
 23 40  1  0  0  0  0
 24 25  1  0  0  0  0
 24 41  1  0  0  0  0
 25 26  2  0  0  0  0
 25 42  1  0  0  0  0
 26 27  1  0  0  0  0
 26 43  1  0  0  0  0
M  END
$$$$
