CHEMBL1668413
 OpenBabel04072215363D

 50 51  0  0  1  0  0  0  0  0999 V2000
    1.3104   -0.6662   -0.7515 C   0  0  0  0  0  0  0  0  0  0  0  0
    2.4473   -0.1701   -0.0544 O   0  0  0  0  0  0  0  0  0  0  0  0
    3.1174   -1.0490    0.7533 C   0  0  0  0  0  0  0  0  0  0  0  0
    2.7493   -2.3653    1.0187 C   0  0  0  0  0  0  0  0  0  0  0  0
    3.5405   -3.1448    1.8677 C   0  0  0  0  0  0  0  0  0  0  0  0
    3.1758   -4.4381    2.1264 O   0  0  0  0  0  0  0  0  0  0  0  0
    4.6970   -2.6176    2.4554 C   0  0  0  0  0  0  0  0  0  0  0  0
    5.0785   -1.2764    2.2116 C   0  0  0  0  0  0  0  0  0  0  0  0
    4.2722   -0.5189    1.3435 C   0  0  0  0  0  0  0  0  0  0  0  0
    6.3602   -0.7181    2.7998 C   0  0  0  0  0  0  0  0  0  0  0  0
    6.4563    0.8062    2.9668 C   0  0  0  0  0  0  0  0  0  0  0  0
    7.8453    1.3427    3.3501 C   0  0  0  0  0  0  0  0  0  0  0  0
    8.6252    0.5388    4.3960 C   0  0  0  0  0  0  0  0  0  0  0  0
    9.7189   -0.2985    3.7354 C   0  0  0  0  0  0  0  0  0  0  0  0
   10.3296   -1.3092    4.6856 C   0  0  0  0  0  0  0  0  0  0  0  0
   10.7661   -0.9776    5.7859 O   0  0  0  0  0  0  0  0  0  0  0  0
   10.3738   -2.7471    4.2095 C   0  0  0  0  0  0  0  0  0  0  0  0
    9.0511   -3.4410    4.5334 C   0  0  2  0  0  0  0  0  0  0  0  0
    9.1618   -4.1785    6.1695 Cl  0  0  0  0  0  0  0  0  0  0  0  0
    8.7065   -4.5261    3.5019 C   0  0  0  0  0  0  0  0  0  0  0  0
    7.2465   -4.9977    3.6147 C   0  0  2  0  0  0  0  0  0  0  0  0
    7.1017   -6.4240    3.0937 C   0  0  0  0  0  0  0  0  0  0  0  0
    6.4202   -4.1396    2.7854 O   0  0  0  0  0  0  0  0  0  0  0  0
    5.4478   -3.4438    3.4218 C   0  0  0  0  0  0  0  0  0  0  0  0
    5.2452   -3.3937    4.6258 O   0  0  0  0  0  0  0  0  0  0  0  0
    0.9171    0.1457   -1.3710 H   0  0  0  0  0  0  0  0  0  0  0  0
    0.5214   -0.9663   -0.0547 H   0  0  0  0  0  0  0  0  0  0  0  0
    1.5864   -1.4902   -1.4171 H   0  0  0  0  0  0  0  0  0  0  0  0
    1.8562   -2.7909    0.5808 H   0  0  0  0  0  0  0  0  0  0  0  0
    2.3125   -4.6240    1.7142 H   0  0  0  0  0  0  0  0  0  0  0  0
    4.5215    0.5104    1.1010 H   0  0  0  0  0  0  0  0  0  0  0  0
    7.1810   -1.0717    2.1667 H   0  0  0  0  0  0  0  0  0  0  0  0
    6.4934   -1.1521    3.7950 H   0  0  0  0  0  0  0  0  0  0  0  0
    5.7261    1.1261    3.7211 H   0  0  0  0  0  0  0  0  0  0  0  0
    6.1829    1.3185    2.0392 H   0  0  0  0  0  0  0  0  0  0  0  0
    7.7075    2.3649    3.7246 H   0  0  0  0  0  0  0  0  0  0  0  0
    8.4447    1.4433    2.4358 H   0  0  0  0  0  0  0  0  0  0  0  0
    7.9615   -0.0791    5.0094 H   0  0  0  0  0  0  0  0  0  0  0  0
    9.1049    1.2372    5.0930 H   0  0  0  0  0  0  0  0  0  0  0  0
   10.5277    0.3423    3.3660 H   0  0  0  0  0  0  0  0  0  0  0  0
    9.3168   -0.8334    2.8698 H   0  0  0  0  0  0  0  0  0  0  0  0
   11.2420   -3.2467    4.6546 H   0  0  0  0  0  0  0  0  0  0  0  0
   10.5631   -2.7227    3.1293 H   0  0  0  0  0  0  0  0  0  0  0  0
    8.2355   -2.7139    4.5875 H   0  0  0  0  0  0  0  0  0  0  0  0
    9.3989   -5.3687    3.6249 H   0  0  0  0  0  0  0  0  0  0  0  0
    8.8649   -4.1249    2.4923 H   0  0  0  0  0  0  0  0  0  0  0  0
    6.9125   -4.9962    4.6592 H   0  0  0  0  0  0  0  0  0  0  0  0
    7.4337   -6.5029    2.0542 H   0  0  0  0  0  0  0  0  0  0  0  0
    6.0525   -6.7380    3.1228 H   0  0  0  0  0  0  0  0  0  0  0  0
    7.6868   -7.1215    3.7030 H   0  0  0  0  0  0  0  0  0  0  0  0
  1  2  1  0  0  0  0
  1 26  1  0  0  0  0
  1 27  1  0  0  0  0
  1 28  1  0  0  0  0
  2  3  1  0  0  0  0
  3  4  1  0  0  0  0
  3  9  2  0  0  0  0
  4  5  2  0  0  0  0
  4 29  1  0  0  0  0
  5  6  1  0  0  0  0
  5  7  1  0  0  0  0
  6 30  1  0  0  0  0
  7  8  2  0  0  0  0
  7 24  1  0  0  0  0
  8  9  1  0  0  0  0
  8 10  1  0  0  0  0
  9 31  1  0  0  0  0
 10 11  1  0  0  0  0
 10 32  1  0  0  0  0
 10 33  1  0  0  0  0
 11 12  1  0  0  0  0
 11 34  1  0  0  0  0
 11 35  1  0  0  0  0
 12 13  1  0  0  0  0
 12 36  1  0  0  0  0
 12 37  1  0  0  0  0
 13 14  1  0  0  0  0
 13 38  1  0  0  0  0
 13 39  1  0  0  0  0
 14 15  1  0  0  0  0
 14 40  1  0  0  0  0
 14 41  1  0  0  0  0
 15 16  2  0  0  0  0
 15 17  1  0  0  0  0
 17 18  1  0  0  0  0
 17 42  1  0  0  0  0
 17 43  1  0  0  0  0
 18 20  1  0  0  0  0
 18 19  1  0  0  0  0
 18 44  1  1  0  0  0
 20 21  1  0  0  0  0
 20 45  1  0  0  0  0
 20 46  1  0  0  0  0
 21 23  1  0  0  0  0
 21 22  1  0  0  0  0
 21 47  1  1  0  0  0
 22 48  1  0  0  0  0
 22 49  1  0  0  0  0
 22 50  1  0  0  0  0
 23 24  1  0  0  0  0
 24 25  2  0  0  0  0
M  END
$$$$
