CHEMBL3981418
 OpenBabel04072215373D

 62 64  0  0  0  0  0  0  0  0999 V2000
    0.7600   -0.2263   -1.6912 Cl  0  0  0  0  0  0  0  0  0  0  0  0
    7.8920   -1.5763   -2.3374 H   0  0  0  0  0  0  0  0  0  0  0  0
    6.9429   -1.1973   -1.9100 C   0  0  0  0  0  0  0  0  0  0  0  0
    6.2361   -0.9953   -2.7428 H   0  0  0  0  0  0  0  0  0  0  0  0
    6.5248   -1.9543   -1.2156 H   0  0  0  0  0  0  0  0  0  0  0  0
    7.2214   -0.0269   -1.2494 O   0  0  0  0  0  0  0  0  0  0  0  0
    6.3286    0.7958   -0.6563 C   0  0  0  0  0  0  0  0  0  0  0  0
    4.9683    0.4491   -0.4745 C   0  0  0  0  0  0  0  0  0  0  0  0
    4.0836    1.3560    0.1187 C   0  0  0  0  0  0  0  0  0  0  0  0
    2.7713    1.0305    0.3130 O   0  0  0  0  0  0  0  0  0  0  0  0
    1.7883    1.8483    0.8688 C   0  0  0  0  0  0  0  0  0  0  0  0
    4.5852    2.5887    0.5189 C   0  0  0  0  0  0  0  0  0  0  0  0
    5.9634    2.9729    0.3655 C   0  0  0  0  0  0  0  0  0  0  0  0
    6.4782    4.2256    0.8790 N   0  0  0  0  0  0  0  0  0  0  0  0
    5.4999    5.0161    1.7683 C   0  0  0  0  0  0  0  0  0  0  0  0
    5.5265    6.5034    1.5142 C   0  0  0  0  0  0  0  0  0  0  0  0
    5.1400    6.7669    0.1318 N   0  0  0  0  0  0  0  0  0  0  0  0
    5.2089    8.1974   -0.1945 C   0  0  0  0  0  0  0  0  0  0  0  0
    6.6336    8.7598   -0.0112 C   0  0  0  0  0  0  0  0  0  0  0  0
    4.7843    8.3771   -1.6500 C   0  0  0  0  0  0  0  0  0  0  0  0
    7.9192    4.6089    0.9629 C   0  0  0  0  0  0  0  0  0  0  0  0
    8.1575    4.9724    2.2841 C   0  0  0  0  0  0  0  0  0  0  0  0
    9.1473    5.7244    2.6123 C   0  0  0  0  0  0  0  0  0  0  0  0
   10.0600    6.1231    1.7860 C   0  0  0  0  0  0  0  0  0  0  0  0
   10.6923    7.0992    2.3235 N   0  0  0  0  0  0  0  0  0  0  0  0
   11.6815    7.7026    1.8029 C   0  0  0  0  0  0  0  0  0  0  0  0
   12.3841    7.1497    0.7747 C   0  0  0  0  0  0  0  0  0  0  0  0
   13.8801    7.7618    0.9878 C   0  0  0  0  0  0  0  0  0  0  0  0
   14.1513    8.7899    1.9863 C   0  0  0  0  0  0  0  0  0  0  0  0
   15.4436    9.0381    2.1292 N   0  0  0  0  0  0  0  0  0  0  0  0
   16.0855    8.2715    1.2896 N   0  0  0  0  0  0  0  0  0  0  0  0
   15.2135    7.4983    0.5575 C   0  0  0  0  0  0  0  0  0  0  0  0
   11.5988    6.1538    0.0041 N   0  0  0  0  0  0  0  0  0  0  0  0
   10.2908    5.6951    0.4941 C   0  0  0  0  0  0  0  0  0  0  0  0
    9.0773    4.8727   -0.0053 C   0  0  0  0  0  0  0  0  0  0  0  0
    6.8004    2.0346   -0.2191 C   0  0  0  0  0  0  0  0  0  0  0  0
    2.0886    0.0995   -1.8391 H   0  0  0  0  0  0  0  0  0  0  0  0
    4.5723   -0.5095   -0.7920 H   0  0  0  0  0  0  0  0  0  0  0  0
    0.8008    1.3419    0.8513 H   0  0  0  0  0  0  0  0  0  0  0  0
    1.6903    2.7907    0.2836 H   0  0  0  0  0  0  0  0  0  0  0  0
    2.0277    2.0951    1.9278 H   0  0  0  0  0  0  0  0  0  0  0  0
    3.8389    3.1958    0.9478 H   0  0  0  0  0  0  0  0  0  0  0  0
    5.6389    4.8375    2.8508 H   0  0  0  0  0  0  0  0  0  0  0  0
    4.4449    4.7936    1.7452 H   0  0  0  0  0  0  0  0  0  0  0  0
    6.5459    6.8468    1.7218 H   0  0  0  0  0  0  0  0  0  0  0  0
    4.8342    7.0276    2.2167 H   0  0  0  0  0  0  0  0  0  0  0  0
    4.1478    6.4420    0.0109 H   0  0  0  0  0  0  0  0  0  0  0  0
    4.5038    8.7696    0.4512 H   0  0  0  0  0  0  0  0  0  0  0  0
    7.3624    8.1589   -0.5974 H   0  0  0  0  0  0  0  0  0  0  0  0
    6.9488    8.7718    1.0516 H   0  0  0  0  0  0  0  0  0  0  0  0
    6.6711    9.8170   -0.3353 H   0  0  0  0  0  0  0  0  0  0  0  0
    5.4618    7.8005   -2.3167 H   0  0  0  0  0  0  0  0  0  0  0  0
    4.8235    9.4512   -1.9240 H   0  0  0  0  0  0  0  0  0  0  0  0
    3.7449    8.0123   -1.7936 H   0  0  0  0  0  0  0  0  0  0  0  0
    7.5464    4.8080    3.1068 H   0  0  0  0  0  0  0  0  0  0  0  0
    9.1633    6.1085    3.6470 H   0  0  0  0  0  0  0  0  0  0  0  0
   11.9128    8.4607    2.4443 H   0  0  0  0  0  0  0  0  0  0  0  0
   13.5407    9.3620    2.6684 H   0  0  0  0  0  0  0  0  0  0  0  0
   17.1292    8.2984    1.2871 H   0  0  0  0  0  0  0  0  0  0  0  0
   15.5940    6.7923   -0.1508 H   0  0  0  0  0  0  0  0  0  0  0  0
    8.9795    4.5488   -1.0498 H   0  0  0  0  0  0  0  0  0  0  0  0
    7.8535    2.2632   -0.3348 H   0  0  0  0  0  0  0  0  0  0  0  0
  1 37  1  0  0  0  0
  2  3  1  0  0  0  0
  3  4  1  0  0  0  0
  3  5  1  0  0  0  0
  3  6  1  0  0  0  0
  6  7  1  0  0  0  0
  7  8  1  0  0  0  0
  7 36  2  0  0  0  0
  8  9  2  0  0  0  0
  8 38  1  0  0  0  0
  9 10  1  0  0  0  0
  9 12  1  0  0  0  0
 10 11  1  0  0  0  0
 11 39  1  0  0  0  0
 11 40  1  0  0  0  0
 11 41  1  0  0  0  0
 12 13  2  0  0  0  0
 12 42  1  0  0  0  0
 13 14  1  0  0  0  0
 13 36  1  0  0  0  0
 14 15  1  0  0  0  0
 14 21  1  0  0  0  0
 15 16  1  0  0  0  0
 15 43  1  0  0  0  0
 15 44  1  0  0  0  0
 16 17  1  0  0  0  0
 16 45  1  0  0  0  0
 16 46  1  0  0  0  0
 17 18  1  0  0  0  0
 17 47  1  0  0  0  0
 18 19  1  0  0  0  0
 18 20  1  0  0  0  0
 18 48  1  0  0  0  0
 19 49  1  0  0  0  0
 19 50  1  0  0  0  0
 19 51  1  0  0  0  0
 20 52  1  0  0  0  0
 20 53  1  0  0  0  0
 20 54  1  0  0  0  0
 21 22  1  0  0  0  0
 21 35  2  0  0  0  0
 22 23  2  0  0  0  0
 22 55  1  0  0  0  0
 23 24  1  0  0  0  0
 23 56  1  0  0  0  0
 24 25  1  0  0  0  0
 24 34  2  0  0  0  0
 25 26  2  0  0  0  0
 26 27  1  0  0  0  0
 26 57  1  0  0  0  0
 27 28  1  0  0  0  0
 27 33  2  0  0  0  0
 28 29  1  0  0  0  0
 28 32  2  0  0  0  0
 29 30  2  0  0  0  0
 29 58  1  0  0  0  0
 30 31  1  0  0  0  0
 31 32  1  0  0  0  0
 31 59  1  0  0  0  0
 32 60  1  0  0  0  0
 33 34  1  0  0  0  0
 34 35  1  0  0  0  0
 35 61  1  0  0  0  0
 36 62  1  0  0  0  0
M  ISO  3   2   2   4   2   5   2
M  END
$$$$
