CHEMBL4060727
 OpenBabel04072215373D

 41 44  0  0  0  0  0  0  0  0999 V2000
    1.2196    0.0428   -0.2963 N   0  0  0  0  0  0  0  0  0  0  0  0
    2.5981    0.0459   -0.1829 C   0  0  0  0  0  0  0  0  0  0  0  0
    3.1946   -1.1516   -0.0738 N   0  0  0  0  0  0  0  0  0  0  0  0
    4.5465   -1.2276    0.0163 C   0  0  0  0  0  0  0  0  0  0  0  0
    5.1734   -2.4636    0.1794 N   0  0  0  0  0  0  0  0  0  0  0  0
    4.5141   -3.6233   -0.4093 C   0  0  0  0  0  0  0  0  0  0  0  0
    5.3978   -4.8600   -0.1815 C   0  0  0  0  0  0  0  0  0  0  0  0
    4.8075   -6.1193   -0.7621 C   0  0  0  0  0  0  0  0  0  0  0  0
    5.1091   -6.5064   -2.0747 C   0  0  0  0  0  0  0  0  0  0  0  0
    4.5455   -7.6620   -2.6177 C   0  0  0  0  0  0  0  0  0  0  0  0
    3.6763   -8.4397   -1.8552 C   0  0  0  0  0  0  0  0  0  0  0  0
    3.3743   -8.0660   -0.5471 C   0  0  0  0  0  0  0  0  0  0  0  0
    3.9357   -6.9102   -0.0023 C   0  0  0  0  0  0  0  0  0  0  0  0
    5.2753   -0.0234   -0.0275 C   0  0  0  0  0  0  0  0  0  0  0  0
    4.5304    1.1406   -0.1007 C   0  0  0  0  0  0  0  0  0  0  0  0
    3.1968    1.2413   -0.1659 N   0  0  0  0  0  0  0  0  0  0  0  0
    5.3867    2.2024   -0.0997 N   0  0  0  0  0  0  0  0  0  0  0  0
    6.6919    1.7702   -0.0699 C   0  0  0  0  0  0  0  0  0  0  0  0
    7.8879    2.4992   -0.0808 C   0  0  0  0  0  0  0  0  0  0  0  0
    9.0902    1.7837   -0.0675 C   0  0  0  0  0  0  0  0  0  0  0  0
    9.0782    0.3958   -0.0415 C   0  0  0  0  0  0  0  0  0  0  0  0
   10.2349   -0.3280   -0.0419 O   0  0  0  0  0  0  0  0  0  0  0  0
    7.8848   -0.3230   -0.0188 C   0  0  0  0  0  0  0  0  0  0  0  0
    6.6551    0.3705   -0.0299 C   0  0  0  0  0  0  0  0  0  0  0  0
    0.8540   -0.8163    0.0901 H   0  0  0  0  0  0  0  0  0  0  0  0
    0.8436    0.9112    0.0555 H   0  0  0  0  0  0  0  0  0  0  0  0
    6.1614   -2.4064   -0.0232 H   0  0  0  0  0  0  0  0  0  0  0  0
    4.3688   -3.4663   -1.4857 H   0  0  0  0  0  0  0  0  0  0  0  0
    3.5305   -3.7821    0.0485 H   0  0  0  0  0  0  0  0  0  0  0  0
    5.5768   -5.0010    0.8928 H   0  0  0  0  0  0  0  0  0  0  0  0
    6.3921   -4.6939   -0.6185 H   0  0  0  0  0  0  0  0  0  0  0  0
    5.7872   -5.9118   -2.6827 H   0  0  0  0  0  0  0  0  0  0  0  0
    4.7838   -7.9547   -3.6369 H   0  0  0  0  0  0  0  0  0  0  0  0
    3.2342   -9.3369   -2.2804 H   0  0  0  0  0  0  0  0  0  0  0  0
    2.6994   -8.6743    0.0493 H   0  0  0  0  0  0  0  0  0  0  0  0
    3.6901   -6.6312    1.0202 H   0  0  0  0  0  0  0  0  0  0  0  0
    5.0841    3.1660   -0.1406 H   0  0  0  0  0  0  0  0  0  0  0  0
    7.8906    3.5848   -0.1061 H   0  0  0  0  0  0  0  0  0  0  0  0
   10.0275    2.3319   -0.0814 H   0  0  0  0  0  0  0  0  0  0  0  0
   10.9863    0.2874   -0.0528 H   0  0  0  0  0  0  0  0  0  0  0  0
    7.9312   -1.4052   -0.0026 H   0  0  0  0  0  0  0  0  0  0  0  0
  1  2  1  0  0  0  0
  1 25  1  0  0  0  0
  1 26  1  0  0  0  0
  2  3  1  0  0  0  0
  2 16  2  0  0  0  0
  3  4  2  0  0  0  0
  4  5  1  0  0  0  0
  4 14  1  0  0  0  0
  5  6  1  0  0  0  0
  5 27  1  0  0  0  0
  6  7  1  0  0  0  0
  6 28  1  0  0  0  0
  6 29  1  0  0  0  0
  7  8  1  0  0  0  0
  7 30  1  0  0  0  0
  7 31  1  0  0  0  0
  8  9  1  0  0  0  0
  8 13  2  0  0  0  0
  9 10  2  0  0  0  0
  9 32  1  0  0  0  0
 10 11  1  0  0  0  0
 10 33  1  0  0  0  0
 11 12  2  0  0  0  0
 11 34  1  0  0  0  0
 12 13  1  0  0  0  0
 12 35  1  0  0  0  0
 13 36  1  0  0  0  0
 14 15  2  0  0  0  0
 14 24  1  0  0  0  0
 15 16  1  0  0  0  0
 15 17  1  0  0  0  0
 17 18  1  0  0  0  0
 17 37  1  0  0  0  0
 18 19  1  0  0  0  0
 18 24  2  0  0  0  0
 19 20  2  0  0  0  0
 19 38  1  0  0  0  0
 20 21  1  0  0  0  0
 20 39  1  0  0  0  0
 21 22  1  0  0  0  0
 21 23  2  0  0  0  0
 22 40  1  0  0  0  0
 23 24  1  0  0  0  0
 23 41  1  0  0  0  0
M  END
$$$$
