CHEMBL3109275
 OpenBabel04072215363D

 61 65  0  0  0  0  0  0  0  0999 V2000
    6.9359    6.4320   -3.0590 C   0  0  0  0  0  0  0  0  0  0  0  0
    6.8448    5.8296   -1.6677 C   0  0  0  0  0  0  0  0  0  0  0  0
    5.6741    4.4836   -1.5807 S   0  0  0  0  0  0  0  0  0  0  0  0
    4.3619    5.0260   -1.9495 O   0  0  0  0  0  0  0  0  0  0  0  0
    6.2185    3.3473   -2.2651 O   0  0  0  0  0  0  0  0  0  0  0  0
    5.5532    4.0472    0.1411 C   0  0  0  0  0  0  0  0  0  0  0  0
    4.3379    4.1382    0.8125 C   0  0  0  0  0  0  0  0  0  0  0  0
    4.2676    3.8161    2.1699 C   0  0  0  0  0  0  0  0  0  0  0  0
    5.4106    3.3960    2.8594 C   0  0  0  0  0  0  0  0  0  0  0  0
    5.4498    3.2400    4.2274 O   0  0  0  0  0  0  0  0  0  0  0  0
    4.2317    2.8928    4.8786 C   0  0  0  0  0  0  0  0  0  0  0  0
    6.6418    3.2603    2.1735 C   0  0  0  0  0  0  0  0  0  0  0  0
    7.8191    2.8350    2.8497 N   0  0  0  0  0  0  0  0  0  0  0  0
    9.0551    3.1233    2.3896 C   0  0  0  0  0  0  0  0  0  0  0  0
    9.4491    3.4133    1.1679 N   0  0  0  0  0  0  0  0  0  0  0  0
   10.8010    3.5164    1.2503 C   0  0  0  0  0  0  0  0  0  0  0  0
   11.1907    3.3991    2.5559 C   0  0  0  0  0  0  0  0  0  0  0  0
   12.4577    3.4847    3.2498 C   0  0  0  0  0  0  0  0  0  0  0  0
   12.5016    3.2732    4.6267 C   0  0  0  0  0  0  0  0  0  0  0  0
   13.6987    3.3078    5.3477 C   0  0  0  0  0  0  0  0  0  0  0  0
   13.7220    2.9699    6.7738 C   0  0  0  0  0  0  0  0  0  0  0  0
   12.8143    2.0434    7.3079 C   0  0  0  0  0  0  0  0  0  0  0  0
   12.8596    1.7078    8.6546 C   0  0  0  0  0  0  0  0  0  0  0  0
   13.8243    2.3081    9.4427 C   0  0  0  0  0  0  0  0  0  0  0  0
   14.7229    3.2019    8.9795 N   0  0  0  0  0  0  0  0  0  0  0  0
   14.6481    3.5107    7.6636 C   0  0  0  0  0  0  0  0  0  0  0  0
   14.8766    3.5847    4.6432 C   0  0  0  0  0  0  0  0  0  0  0  0
   14.8835    3.7621    3.2485 C   0  0  0  0  0  0  0  0  0  0  0  0
   16.1580    3.8156    2.5158 C   0  0  0  0  0  0  0  0  0  0  0  0
   17.2681    3.0999    2.9723 C   0  0  0  0  0  0  0  0  0  0  0  0
   18.4278    3.0783    2.2122 C   0  0  0  0  0  0  0  0  0  0  0  0
   18.4574    3.7820    1.0183 C   0  0  0  0  0  0  0  0  0  0  0  0
   17.3236    4.4782    0.6362 C   0  0  0  0  0  0  0  0  0  0  0  0
   16.1754    4.5048    1.3495 N   0  0  0  0  0  0  0  0  0  0  0  0
   13.6532    3.7505    2.5691 C   0  0  0  0  0  0  0  0  0  0  0  0
   10.0646    3.1542    3.3059 O   0  0  0  0  0  0  0  0  0  0  0  0
    6.6835    3.5782    0.8043 C   0  0  0  0  0  0  0  0  0  0  0  0
    7.6713    7.2441   -3.0698 H   0  0  0  0  0  0  0  0  0  0  0  0
    5.9743    6.8419   -3.3854 H   0  0  0  0  0  0  0  0  0  0  0  0
    7.2512    5.6842   -3.7947 H   0  0  0  0  0  0  0  0  0  0  0  0
    6.5415    6.5933   -0.9472 H   0  0  0  0  0  0  0  0  0  0  0  0
    7.8268    5.4331   -1.3925 H   0  0  0  0  0  0  0  0  0  0  0  0
    3.4372    4.4821    0.3101 H   0  0  0  0  0  0  0  0  0  0  0  0
    3.3083    3.9409    2.6654 H   0  0  0  0  0  0  0  0  0  0  0  0
    4.4829    2.6519    5.9164 H   0  0  0  0  0  0  0  0  0  0  0  0
    3.7762    1.9998    4.4326 H   0  0  0  0  0  0  0  0  0  0  0  0
    3.5235    3.7301    4.8983 H   0  0  0  0  0  0  0  0  0  0  0  0
    7.7104    2.8907    3.8567 H   0  0  0  0  0  0  0  0  0  0  0  0
   11.4071    3.6815    0.3745 H   0  0  0  0  0  0  0  0  0  0  0  0
   11.5744    3.0472    5.1490 H   0  0  0  0  0  0  0  0  0  0  0  0
   12.0744    1.5654    6.6725 H   0  0  0  0  0  0  0  0  0  0  0  0
   12.1632    0.9912    9.0723 H   0  0  0  0  0  0  0  0  0  0  0  0
   13.9032    2.0763   10.4991 H   0  0  0  0  0  0  0  0  0  0  0  0
   15.3859    4.2384    7.3364 H   0  0  0  0  0  0  0  0  0  0  0  0
   15.8213    3.5953    5.1831 H   0  0  0  0  0  0  0  0  0  0  0  0
   17.2217    2.5312    3.8941 H   0  0  0  0  0  0  0  0  0  0  0  0
   19.2872    2.5060    2.5463 H   0  0  0  0  0  0  0  0  0  0  0  0
   19.3447    3.7766    0.3938 H   0  0  0  0  0  0  0  0  0  0  0  0
   17.3060    5.0458   -0.2900 H   0  0  0  0  0  0  0  0  0  0  0  0
   13.6514    3.9026    1.4919 H   0  0  0  0  0  0  0  0  0  0  0  0
    7.6077    3.5194    0.2514 H   0  0  0  0  0  0  0  0  0  0  0  0
  1  2  1  0  0  0  0
  1 38  1  0  0  0  0
  1 39  1  0  0  0  0
  1 40  1  0  0  0  0
  2  3  1  0  0  0  0
  2 41  1  0  0  0  0
  2 42  1  0  0  0  0
  3  4  2  0  0  0  0
  3  5  2  0  0  0  0
  3  6  1  0  0  0  0
  6  7  1  0  0  0  0
  6 37  2  0  0  0  0
  7  8  2  0  0  0  0
  7 43  1  0  0  0  0
  8  9  1  0  0  0  0
  8 44  1  0  0  0  0
  9 10  1  0  0  0  0
  9 12  2  0  0  0  0
 10 11  1  0  0  0  0
 11 45  1  0  0  0  0
 11 46  1  0  0  0  0
 11 47  1  0  0  0  0
 12 13  1  0  0  0  0
 12 37  1  0  0  0  0
 13 14  1  0  0  0  0
 13 48  1  0  0  0  0
 14 15  2  0  0  0  0
 14 36  1  0  0  0  0
 15 16  1  0  0  0  0
 16 17  2  0  0  0  0
 16 49  1  0  0  0  0
 17 18  1  0  0  0  0
 17 36  1  0  0  0  0
 18 19  1  0  0  0  0
 18 35  2  0  0  0  0
 19 20  2  0  0  0  0
 19 50  1  0  0  0  0
 20 21  1  0  0  0  0
 20 27  1  0  0  0  0
 21 22  1  0  0  0  0
 21 26  2  0  0  0  0
 22 23  2  0  0  0  0
 22 51  1  0  0  0  0
 23 24  1  0  0  0  0
 23 52  1  0  0  0  0
 24 25  2  0  0  0  0
 24 53  1  0  0  0  0
 25 26  1  0  0  0  0
 26 54  1  0  0  0  0
 27 28  2  0  0  0  0
 27 55  1  0  0  0  0
 28 29  1  0  0  0  0
 28 35  1  0  0  0  0
 29 30  1  0  0  0  0
 29 34  2  0  0  0  0
 30 31  2  0  0  0  0
 30 56  1  0  0  0  0
 31 32  1  0  0  0  0
 31 57  1  0  0  0  0
 32 33  2  0  0  0  0
 32 58  1  0  0  0  0
 33 34  1  0  0  0  0
 33 59  1  0  0  0  0
 35 60  1  0  0  0  0
 37 61  1  0  0  0  0
M  END
$$$$
