CHEMBL3904561
 OpenBabel04072215373D

 55 59  0  0  0  0  0  0  0  0999 V2000
    1.4327   -0.5671   -0.1297 C   0  0  0  0  0  0  0  0  0  0  0  0
    2.3038    0.3786    0.4870 O   0  0  0  0  0  0  0  0  0  0  0  0
    2.9950   -0.0621    1.5853 C   0  0  0  0  0  0  0  0  0  0  0  0
    2.6269   -1.1180    2.3996 C   0  0  0  0  0  0  0  0  0  0  0  0
    3.4223   -1.4476    3.5019 C   0  0  0  0  0  0  0  0  0  0  0  0
    3.1245   -2.4353    4.4060 O   0  0  0  0  0  0  0  0  0  0  0  0
    1.9979   -3.2512    4.1021 C   0  0  0  0  0  0  0  0  0  0  0  0
    4.6326   -0.7677    3.7466 C   0  0  0  0  0  0  0  0  0  0  0  0
    5.0847    0.2344    2.8900 C   0  0  0  0  0  0  0  0  0  0  0  0
    6.3737    0.8241    3.0157 N   0  0  0  0  0  0  0  0  0  0  0  0
    6.7906    1.6828    1.8452 C   0  0  0  0  0  0  0  0  0  0  0  0
    7.0494    0.9974    0.5365 C   0  0  0  0  0  0  0  0  0  0  0  0
    7.0612   -0.3820    0.2497 C   0  0  0  0  0  0  0  0  0  0  0  0
    7.3205   -0.5779   -1.0399 N   0  0  0  0  0  0  0  0  0  0  0  0
    7.4545    0.6835   -1.4797 N   0  0  0  0  0  0  0  0  0  0  0  0
    7.2988    1.6811   -0.5921 N   0  0  0  0  0  0  0  0  0  0  0  0
    7.5002    0.6040    3.8817 C   0  0  0  0  0  0  0  0  0  0  0  0
    8.0799    1.7741    4.3812 C   0  0  0  0  0  0  0  0  0  0  0  0
    9.4145    1.7864    4.7200 C   0  0  0  0  0  0  0  0  0  0  0  0
   10.1734    0.6455    4.7403 C   0  0  0  0  0  0  0  0  0  0  0  0
   11.4789    0.8812    4.8993 N   0  0  0  0  0  0  0  0  0  0  0  0
   12.2627   -0.1885    5.0834 C   0  0  0  0  0  0  0  0  0  0  0  0
   11.7677   -1.4581    5.2076 C   0  0  0  0  0  0  0  0  0  0  0  0
   12.7007   -2.4333    5.7961 C   0  0  0  0  0  0  0  0  0  0  0  0
   12.8515   -2.8183    7.1588 C   0  0  0  0  0  0  0  0  0  0  0  0
   14.0214   -3.4207    7.4157 N   0  0  0  0  0  0  0  0  0  0  0  0
   14.6506   -3.4090    6.2295 N   0  0  0  0  0  0  0  0  0  0  0  0
   15.9170   -4.0888    6.0639 C   0  0  0  0  0  0  0  0  0  0  0  0
   13.9550   -2.7220    5.2686 C   0  0  0  0  0  0  0  0  0  0  0  0
   10.4286   -1.7243    4.9309 N   0  0  0  0  0  0  0  0  0  0  0  0
    9.5963   -0.6351    4.6117 C   0  0  0  0  0  0  0  0  0  0  0  0
    8.2170   -0.6098    4.1097 C   0  0  0  0  0  0  0  0  0  0  0  0
    4.1714    0.6343    1.8752 C   0  0  0  0  0  0  0  0  0  0  0  0
    1.2155   -0.2199   -1.1451 H   0  0  0  0  0  0  0  0  0  0  0  0
    0.4855   -0.6245    0.4173 H   0  0  0  0  0  0  0  0  0  0  0  0
    1.8936   -1.5573   -0.2164 H   0  0  0  0  0  0  0  0  0  0  0  0
    1.7156   -1.6585    2.1846 H   0  0  0  0  0  0  0  0  0  0  0  0
    1.8934   -3.9915    4.8989 H   0  0  0  0  0  0  0  0  0  0  0  0
    2.1492   -3.7902    3.1598 H   0  0  0  0  0  0  0  0  0  0  0  0
    1.0741   -2.6623    4.0739 H   0  0  0  0  0  0  0  0  0  0  0  0
    5.2214   -1.0503    4.6136 H   0  0  0  0  0  0  0  0  0  0  0  0
    7.7102    2.2454    2.0549 H   0  0  0  0  0  0  0  0  0  0  0  0
    6.0585    2.4928    1.7131 H   0  0  0  0  0  0  0  0  0  0  0  0
    6.8840   -1.2208    0.9079 H   0  0  0  0  0  0  0  0  0  0  0  0
    7.6632    0.8809   -2.4539 H   0  0  0  0  0  0  0  0  0  0  0  0
    7.5460    2.7161    4.3340 H   0  0  0  0  0  0  0  0  0  0  0  0
    9.8891    2.7396    4.9311 H   0  0  0  0  0  0  0  0  0  0  0  0
   13.3174    0.0345    5.1992 H   0  0  0  0  0  0  0  0  0  0  0  0
   12.1879   -2.6307    7.9935 H   0  0  0  0  0  0  0  0  0  0  0  0
   16.2186   -4.5593    7.0048 H   0  0  0  0  0  0  0  0  0  0  0  0
   16.6797   -3.3723    5.7468 H   0  0  0  0  0  0  0  0  0  0  0  0
   15.7800   -4.8588    5.3001 H   0  0  0  0  0  0  0  0  0  0  0  0
   14.4173   -2.4847    4.3207 H   0  0  0  0  0  0  0  0  0  0  0  0
    7.7626   -1.5614    3.8311 H   0  0  0  0  0  0  0  0  0  0  0  0
    4.3576    1.4920    1.2337 H   0  0  0  0  0  0  0  0  0  0  0  0
  1  2  1  0  0  0  0
  1 34  1  0  0  0  0
  1 35  1  0  0  0  0
  1 36  1  0  0  0  0
  2  3  1  0  0  0  0
  3  4  1  0  0  0  0
  3 33  2  0  0  0  0
  4  5  2  0  0  0  0
  4 37  1  0  0  0  0
  5  6  1  0  0  0  0
  5  8  1  0  0  0  0
  6  7  1  0  0  0  0
  7 38  1  0  0  0  0
  7 39  1  0  0  0  0
  7 40  1  0  0  0  0
  8  9  2  0  0  0  0
  8 41  1  0  0  0  0
  9 10  1  0  0  0  0
  9 33  1  0  0  0  0
 10 11  1  0  0  0  0
 10 17  1  0  0  0  0
 11 12  1  0  0  0  0
 11 42  1  0  0  0  0
 11 43  1  0  0  0  0
 12 13  1  0  0  0  0
 12 16  2  0  0  0  0
 13 14  2  0  0  0  0
 13 44  1  0  0  0  0
 14 15  1  0  0  0  0
 15 16  1  0  0  0  0
 15 45  1  0  0  0  0
 17 18  1  0  0  0  0
 17 32  2  0  0  0  0
 18 19  2  0  0  0  0
 18 46  1  0  0  0  0
 19 20  1  0  0  0  0
 19 47  1  0  0  0  0
 20 21  1  0  0  0  0
 20 31  2  0  0  0  0
 21 22  2  0  0  0  0
 22 23  1  0  0  0  0
 22 48  1  0  0  0  0
 23 24  1  0  0  0  0
 23 30  2  0  0  0  0
 24 25  1  0  0  0  0
 24 29  2  0  0  0  0
 25 26  2  0  0  0  0
 25 49  1  0  0  0  0
 26 27  1  0  0  0  0
 27 28  1  0  0  0  0
 27 29  1  0  0  0  0
 28 50  1  0  0  0  0
 28 51  1  0  0  0  0
 28 52  1  0  0  0  0
 29 53  1  0  0  0  0
 30 31  1  0  0  0  0
 31 32  1  0  0  0  0
 32 54  1  0  0  0  0
 33 55  1  0  0  0  0
M  END
$$$$
