CHEMBL3966929
 OpenBabel04072215373D

 63 66  0  0  0  0  0  0  0  0999 V2000
    7.8647    2.2257   -0.4570 H   0  0  0  0  0  0  0  0  0  0  0  0
    6.9824    1.5792   -0.3270 C   0  0  0  0  0  0  0  0  0  0  0  0
    6.2193    2.1363    0.2394 H   0  0  0  0  0  0  0  0  0  0  0  0
    6.5829    1.3523   -1.3275 H   0  0  0  0  0  0  0  0  0  0  0  0
    7.2866    0.4510    0.4022 O   0  0  0  0  0  0  0  0  0  0  0  0
    6.3836   -0.5324    0.6365 C   0  0  0  0  0  0  0  0  0  0  0  0
    5.1006   -0.4460    0.1480 C   0  0  0  0  0  0  0  0  0  0  0  0
    4.1658   -1.4613    0.3079 C   0  0  0  0  0  0  0  0  0  0  0  0
    2.9297   -1.3536   -0.2355 O   0  0  0  0  0  0  0  0  0  0  0  0
    1.9811   -2.3513   -0.0903 C   0  0  0  0  0  0  0  0  0  0  0  0
    2.3665   -3.2867   -0.5389 H   0  0  0  0  0  0  0  0  0  0  0  0
    1.7759   -2.5447    0.9847 H   0  0  0  0  0  0  0  0  0  0  0  0
    1.0374   -2.0920   -0.5804 H   0  0  0  0  0  0  0  0  0  0  0  0
    4.5417   -2.6056    0.9842 C   0  0  0  0  0  0  0  0  0  0  0  0
    5.8573   -2.7621    1.4260 C   0  0  0  0  0  0  0  0  0  0  0  0
    6.3318   -4.0646    1.8133 N   0  0  0  0  0  0  0  0  0  0  0  0
    5.4541   -5.2209    1.7491 C   0  0  0  0  0  0  0  0  0  0  0  0
    5.7749   -6.1393    2.6862 C   0  0  0  0  0  0  0  0  0  0  0  0
    5.0683   -7.1414    2.8489 C   0  0  0  0  0  0  0  0  0  0  0  0
    4.0492   -7.3396    2.1675 C   0  0  0  0  0  0  0  0  0  0  0  0
    3.7507   -8.3469    2.5801 N   0  0  0  0  0  0  0  0  0  0  0  0
    3.4884   -9.3313    3.0033 C   0  0  0  0  0  0  0  0  0  0  0  0
    2.4350   -9.7611    2.4673 C   0  0  0  0  0  0  0  0  0  0  0  0
    2.5145  -11.5819    3.4711 C   0  0  0  0  0  0  0  0  0  0  0  0
    2.9964  -12.1911    4.7670 C   0  0  0  0  0  0  0  0  0  0  0  0
    2.3902  -13.4405    5.0676 N   0  0  0  0  0  0  0  0  0  0  0  0
    1.5670  -13.7705    4.0843 N   0  0  0  0  0  0  0  0  0  0  0  0
    0.6966  -15.0134    4.1325 C   0  0  0  0  0  0  0  0  0  0  0  0
    1.6183  -12.7346    3.1098 C   0  0  0  0  0  0  0  0  0  0  0  0
    2.1039   -8.2616    1.2979 N   0  0  0  0  0  0  0  0  0  0  0  0
    3.2691   -6.9314    1.2452 C   0  0  0  0  0  0  0  0  0  0  0  0
    4.1940   -5.5128    0.8797 C   0  0  0  0  0  0  0  0  0  0  0  0
    7.7003   -4.2161    2.3025 C   0  0  0  0  0  0  0  0  0  0  0  0
    8.2207   -3.2323    2.2893 H   0  0  0  0  0  0  0  0  0  0  0  0
    7.7005   -4.5869    3.3446 H   0  0  0  0  0  0  0  0  0  0  0  0
    8.4962   -5.1638    1.4303 C   0  0  0  0  0  0  0  0  0  0  0  0
    8.0414   -6.1484    1.4603 H   0  0  0  0  0  0  0  0  0  0  0  0
    8.4848   -4.7836    0.3920 H   0  0  0  0  0  0  0  0  0  0  0  0
    9.9015   -5.3377    1.9114 C   0  0  0  0  0  0  0  0  0  0  0  0
   10.3914   -4.3523    1.9229 H   0  0  0  0  0  0  0  0  0  0  0  0
    9.8753   -5.7482    2.9356 H   0  0  0  0  0  0  0  0  0  0  0  0
   10.6095   -6.2593    1.0295 N   0  0  0  0  0  0  0  0  0  0  0  0
   11.9793   -6.4231    1.5062 C   0  0  0  0  0  0  0  0  0  0  0  0
   12.7314   -7.3743    0.6034 C   0  0  0  0  0  0  0  0  0  0  0  0
   11.9038   -7.8083   -0.4053 F   0  0  0  0  0  0  0  0  0  0  0  0
   13.8188   -6.7348    0.0544 F   0  0  0  0  0  0  0  0  0  0  0  0
   13.1698   -8.4602    1.3249 F   0  0  0  0  0  0  0  0  0  0  0  0
    6.7385   -1.6665    1.3386 C   0  0  0  0  0  0  0  0  0  0  0  0
    4.8224    0.4317   -0.3551 H   0  0  0  0  0  0  0  0  0  0  0  0
    3.8303   -3.3852    1.1522 H   0  0  0  0  0  0  0  0  0  0  0  0
    6.5969   -6.1495    3.3317 H   0  0  0  0  0  0  0  0  0  0  0  0
    5.2955   -7.8863    3.6388 H   0  0  0  0  0  0  0  0  0  0  0  0
    4.1418   -9.8181    3.6074 H   0  0  0  0  0  0  0  0  0  0  0  0
    3.5533  -11.8055    5.5806 H   0  0  0  0  0  0  0  0  0  0  0  0
    0.9107  -15.6699    5.0186 H   0  0  0  0  0  0  0  0  0  0  0  0
    0.8183  -15.6486    3.2316 H   0  0  0  0  0  0  0  0  0  0  0  0
   -0.3794  -14.7412    4.2093 H   0  0  0  0  0  0  0  0  0  0  0  0
    0.9717  -12.8401    2.2735 H   0  0  0  0  0  0  0  0  0  0  0  0
    4.2572   -4.6665    0.0959 H   0  0  0  0  0  0  0  0  0  0  0  0
   10.6336   -5.8510    0.0664 H   0  0  0  0  0  0  0  0  0  0  0  0
   11.9706   -6.8341    2.5318 H   0  0  0  0  0  0  0  0  0  0  0  0
   12.5031   -5.4492    1.5203 H   0  0  0  0  0  0  0  0  0  0  0  0
    7.7010   -1.6882    1.7988 H   0  0  0  0  0  0  0  0  0  0  0  0
  1  2  1  0  0  0  0
  2  3  1  0  0  0  0
  2  4  1  0  0  0  0
  2  5  1  0  0  0  0
  5  6  1  0  0  0  0
  6  7  1  0  0  0  0
  6 48  2  0  0  0  0
  7  8  2  0  0  0  0
  7 49  1  0  0  0  0
  8  9  1  0  0  0  0
  8 14  1  0  0  0  0
  9 10  1  0  0  0  0
 10 11  1  0  0  0  0
 10 12  1  0  0  0  0
 10 13  1  0  0  0  0
 14 15  2  0  0  0  0
 14 50  1  0  0  0  0
 15 16  1  0  0  0  0
 15 48  1  0  0  0  0
 16 17  1  0  0  0  0
 16 33  1  0  0  0  0
 17 18  1  0  0  0  0
 17 32  2  0  0  0  0
 18 19  2  0  0  0  0
 18 51  1  0  0  0  0
 19 20  1  0  0  0  0
 19 52  1  0  0  0  0
 20 21  1  0  0  0  0
 20 31  2  0  0  0  0
 21 22  2  0  0  0  0
 22 23  1  0  0  0  0
 22 53  1  0  0  0  0
 23 24  1  0  0  0  0
 23 30  2  0  0  0  0
 24 25  1  0  0  0  0
 24 29  2  0  0  0  0
 25 26  2  0  0  0  0
 25 54  1  0  0  0  0
 26 27  1  0  0  0  0
 27 28  1  0  0  0  0
 27 29  1  0  0  0  0
 28 55  1  0  0  0  0
 28 56  1  0  0  0  0
 28 57  1  0  0  0  0
 29 58  1  0  0  0  0
 30 31  1  0  0  0  0
 31 32  1  0  0  0  0
 32 59  1  0  0  0  0
 33 34  1  0  0  0  0
 33 35  1  0  0  0  0
 33 36  1  0  0  0  0
 36 37  1  0  0  0  0
 36 38  1  0  0  0  0
 36 39  1  0  0  0  0
 39 40  1  0  0  0  0
 39 41  1  0  0  0  0
 39 42  1  0  0  0  0
 42 43  1  0  0  0  0
 42 60  1  0  0  0  0
 43 44  1  0  0  0  0
 43 61  1  0  0  0  0
 43 62  1  0  0  0  0
 44 45  1  0  0  0  0
 44 46  1  0  0  0  0
 44 47  1  0  0  0  0
 48 63  1  0  0  0  0
M  ISO  8   1   2   3   2   4   2  11   2  12   2  13   2  34   2  35   2
M  ISO  4  37   2  38   2  40   2  41   2
M  END
$$$$
