CHEMBL3660295
 OpenBabel04072215373D

 55 58  0  0  0  0  0  0  0  0999 V2000
    3.3115   -2.9381    0.3750 C   0  0  0  0  0  0  0  0  0  0  0  0
    4.5341   -2.4024   -0.1304 O   0  0  0  0  0  0  0  0  0  0  0  0
    4.7867   -1.1343    0.3085 C   0  0  0  0  0  0  0  0  0  0  0  0
    4.0377   -0.5000    1.0422 O   0  0  0  0  0  0  0  0  0  0  0  0
    6.0521   -0.5966   -0.1762 C   0  0  0  0  0  0  0  0  0  0  0  0
    6.9550   -1.1580   -1.0623 C   0  0  0  0  0  0  0  0  0  0  0  0
    8.0103   -0.2897   -1.2187 N   0  0  0  0  0  0  0  0  0  0  0  0
    7.8189    0.8355   -0.4468 C   0  0  0  0  0  0  0  0  0  0  0  0
    8.7825    1.9307   -0.3688 C   0  0  0  0  0  0  0  0  0  0  0  0
    8.5451    3.0340    0.4414 C   0  0  0  0  0  0  0  0  0  0  0  0
    9.5416    3.9948    0.5882 C   0  0  0  0  0  0  0  0  0  0  0  0
    9.4400    5.0918    1.4250 O   0  0  0  0  0  0  0  0  0  0  0  0
    8.7110    4.9770    2.5959 C   0  0  0  0  0  0  0  0  0  0  0  0
    8.6605    3.8117    3.3491 C   0  0  0  0  0  0  0  0  0  0  0  0
    7.8117    3.7250    4.4527 C   0  0  0  0  0  0  0  0  0  0  0  0
    7.0551    4.8163    4.8802 C   0  0  0  0  0  0  0  0  0  0  0  0
    6.1400    4.7458    5.9633 N   0  0  0  0  0  0  0  0  0  0  0  0
    5.9070    3.6266    6.7416 C   0  0  0  0  0  0  0  0  0  0  0  0
    6.5247    2.5664    6.6591 O   0  0  0  0  0  0  0  0  0  0  0  0
    4.8618    3.7989    7.6357 N   0  0  0  0  0  0  0  0  0  0  0  0
    4.5137    2.7309    8.5088 C   0  0  0  0  0  0  0  0  0  0  0  0
    5.4821    2.0432    9.2533 C   0  0  0  0  0  0  0  0  0  0  0  0
    5.1265    0.9519   10.0601 C   0  0  0  0  0  0  0  0  0  0  0  0
    6.1613    0.2325   10.8765 C   0  0  0  0  0  0  0  0  0  0  0  0
    3.7880    0.5393   10.0990 C   0  0  0  0  0  0  0  0  0  0  0  0
    2.8167    1.2262    9.3670 C   0  0  0  0  0  0  0  0  0  0  0  0
    3.1814    2.3284    8.5985 C   0  0  0  0  0  0  0  0  0  0  0  0
    2.2434    2.9695    7.8837 F   0  0  0  0  0  0  0  0  0  0  0  0
    7.1976    6.0267    4.1853 C   0  0  0  0  0  0  0  0  0  0  0  0
    8.0199    6.1025    3.0453 C   0  0  0  0  0  0  0  0  0  0  0  0
   10.6985    3.8781   -0.1708 C   0  0  0  0  0  0  0  0  0  0  0  0
   10.8338    2.7656   -0.9895 C   0  0  0  0  0  0  0  0  0  0  0  0
    9.9136    1.7765   -1.0940 N   0  0  0  0  0  0  0  0  0  0  0  0
    6.6094    0.6578    0.2014 C   0  0  0  0  0  0  0  0  0  0  0  0
    3.2632   -3.9953    0.1007 H   0  0  0  0  0  0  0  0  0  0  0  0
    2.4585   -2.4213   -0.0760 H   0  0  0  0  0  0  0  0  0  0  0  0
    3.2709   -2.8675    1.4672 H   0  0  0  0  0  0  0  0  0  0  0  0
    6.9378   -2.1009   -1.5931 H   0  0  0  0  0  0  0  0  0  0  0  0
    8.8265   -0.4338   -1.8000 H   0  0  0  0  0  0  0  0  0  0  0  0
    7.6101    3.1193    0.9807 H   0  0  0  0  0  0  0  0  0  0  0  0
    9.2356    2.9306    3.0767 H   0  0  0  0  0  0  0  0  0  0  0  0
    7.7673    2.7578    4.9412 H   0  0  0  0  0  0  0  0  0  0  0  0
    5.6581    5.5923    6.2244 H   0  0  0  0  0  0  0  0  0  0  0  0
    4.0725    4.3096    7.2602 H   0  0  0  0  0  0  0  0  0  0  0  0
    6.5243    2.3524    9.1983 H   0  0  0  0  0  0  0  0  0  0  0  0
    7.1623    0.6460   10.7133 H   0  0  0  0  0  0  0  0  0  0  0  0
    6.1899   -0.8287   10.6108 H   0  0  0  0  0  0  0  0  0  0  0  0
    5.9293    0.3313   11.9420 H   0  0  0  0  0  0  0  0  0  0  0  0
    3.4991   -0.3223   10.6974 H   0  0  0  0  0  0  0  0  0  0  0  0
    1.7827    0.8983    9.3802 H   0  0  0  0  0  0  0  0  0  0  0  0
    6.6611    6.9176    4.5016 H   0  0  0  0  0  0  0  0  0  0  0  0
    8.1012    7.0418    2.5015 H   0  0  0  0  0  0  0  0  0  0  0  0
   11.4789    4.6288   -0.1206 H   0  0  0  0  0  0  0  0  0  0  0  0
   11.7238    2.6329   -1.6007 H   0  0  0  0  0  0  0  0  0  0  0  0
    6.1535    1.3472    0.9007 H   0  0  0  0  0  0  0  0  0  0  0  0
  1  2  1  0  0  0  0
  1 35  1  0  0  0  0
  1 36  1  0  0  0  0
  1 37  1  0  0  0  0
  2  3  1  0  0  0  0
  3  4  2  0  0  0  0
  3  5  1  0  0  0  0
  5  6  2  0  0  0  0
  5 34  1  0  0  0  0
  6  7  1  0  0  0  0
  6 38  1  0  0  0  0
  7  8  1  0  0  0  0
  7 39  1  0  0  0  0
  8  9  1  0  0  0  0
  8 34  2  0  0  0  0
  9 10  1  0  0  0  0
  9 33  2  0  0  0  0
 10 11  2  0  0  0  0
 10 40  1  0  0  0  0
 11 12  1  0  0  0  0
 11 31  1  0  0  0  0
 12 13  1  0  0  0  0
 13 14  1  0  0  0  0
 13 30  2  0  0  0  0
 14 15  2  0  0  0  0
 14 41  1  0  0  0  0
 15 16  1  0  0  0  0
 15 42  1  0  0  0  0
 16 17  1  0  0  0  0
 16 29  2  0  0  0  0
 17 18  1  0  0  0  0
 17 43  1  0  0  0  0
 18 19  2  0  0  0  0
 18 20  1  0  0  0  0
 20 21  1  0  0  0  0
 20 44  1  0  0  0  0
 21 22  1  0  0  0  0
 21 27  2  0  0  0  0
 22 23  2  0  0  0  0
 22 45  1  0  0  0  0
 23 24  1  0  0  0  0
 23 25  1  0  0  0  0
 24 46  1  0  0  0  0
 24 47  1  0  0  0  0
 24 48  1  0  0  0  0
 25 26  2  0  0  0  0
 25 49  1  0  0  0  0
 26 27  1  0  0  0  0
 26 50  1  0  0  0  0
 27 28  1  0  0  0  0
 29 30  1  0  0  0  0
 29 51  1  0  0  0  0
 30 52  1  0  0  0  0
 31 32  2  0  0  0  0
 31 53  1  0  0  0  0
 32 33  1  0  0  0  0
 32 54  1  0  0  0  0
 34 55  1  0  0  0  0
M  END
$$$$
