CHEMBL7724
 OpenBabel04072215383D

 32 34  0  0  0  0  0  0  0  0999 V2000
    1.0622    0.1042   -0.0992 C   0  0  0  0  0  0  0  0  0  0  0  0
    2.5610    0.0854    0.0218 C   0  0  0  0  0  0  0  0  0  0  0  0
    3.2581    1.3013    0.0479 C   0  0  0  0  0  0  0  0  0  0  0  0
    4.6325    1.3581    0.2280 C   0  0  0  0  0  0  0  0  0  0  0  0
    5.2260    2.5611    0.2844 N   0  0  0  0  0  0  0  0  0  0  0  0
    6.5569    2.5538    0.5182 C   0  0  0  0  0  0  0  0  0  0  0  0
    7.3035    1.3933    0.6906 C   0  0  0  0  0  0  0  0  0  0  0  0
    8.7476    1.4238    0.9910 C   0  0  0  0  0  0  0  0  0  0  0  0
    9.3116    2.4512    1.7736 C   0  0  0  0  0  0  0  0  0  0  0  0
   10.6871    2.5177    2.0109 C   0  0  0  0  0  0  0  0  0  0  0  0
   11.5303    1.5480    1.4812 C   0  0  0  0  0  0  0  0  0  0  0  0
   10.9969    0.5029    0.7319 C   0  0  0  0  0  0  0  0  0  0  0  0
    9.6187    0.4385    0.4952 C   0  0  0  0  0  0  0  0  0  0  0  0
    6.7056    0.1793    0.5880 N   0  0  0  0  0  0  0  0  0  0  0  0
    5.3683    0.1602    0.3710 C   0  0  0  0  0  0  0  0  0  0  0  0
    4.6808   -1.0482    0.3116 C   0  0  0  0  0  0  0  0  0  0  0  0
    3.2834   -1.1101    0.1504 C   0  0  0  0  0  0  0  0  0  0  0  0
    2.5917   -2.4453    0.1664 C   0  0  0  0  0  0  0  0  0  0  0  0
    0.6839    1.1224   -0.2422 H   0  0  0  0  0  0  0  0  0  0  0  0
    0.6077   -0.2913    0.8147 H   0  0  0  0  0  0  0  0  0  0  0  0
    0.7357   -0.4891   -0.9583 H   0  0  0  0  0  0  0  0  0  0  0  0
    2.7190    2.2413   -0.0502 H   0  0  0  0  0  0  0  0  0  0  0  0
    7.0106    3.5385    0.5589 H   0  0  0  0  0  0  0  0  0  0  0  0
    8.6812    3.2167    2.2221 H   0  0  0  0  0  0  0  0  0  0  0  0
   11.0950    3.3283    2.6102 H   0  0  0  0  0  0  0  0  0  0  0  0
   12.6014    1.6034    1.6573 H   0  0  0  0  0  0  0  0  0  0  0  0
   11.6518   -0.2633    0.3258 H   0  0  0  0  0  0  0  0  0  0  0  0
    9.2236   -0.3862   -0.0965 H   0  0  0  0  0  0  0  0  0  0  0  0
    5.2551   -1.9662    0.4190 H   0  0  0  0  0  0  0  0  0  0  0  0
    3.3093   -3.2711    0.2065 H   0  0  0  0  0  0  0  0  0  0  0  0
    1.9893   -2.5785   -0.7379 H   0  0  0  0  0  0  0  0  0  0  0  0
    1.9459   -2.5211    1.0476 H   0  0  0  0  0  0  0  0  0  0  0  0
  1  2  1  0  0  0  0
  1 19  1  0  0  0  0
  1 20  1  0  0  0  0
  1 21  1  0  0  0  0
  2  3  1  0  0  0  0
  2 17  2  0  0  0  0
  3  4  2  0  0  0  0
  3 22  1  0  0  0  0
  4  5  1  0  0  0  0
  4 15  1  0  0  0  0
  5  6  2  0  0  0  0
  6  7  1  0  0  0  0
  6 23  1  0  0  0  0
  7  8  1  0  0  0  0
  7 14  2  0  0  0  0
  8  9  1  0  0  0  0
  8 13  2  0  0  0  0
  9 10  2  0  0  0  0
  9 24  1  0  0  0  0
 10 11  1  0  0  0  0
 10 25  1  0  0  0  0
 11 12  2  0  0  0  0
 11 26  1  0  0  0  0
 12 13  1  0  0  0  0
 12 27  1  0  0  0  0
 13 28  1  0  0  0  0
 14 15  1  0  0  0  0
 15 16  2  0  0  0  0
 16 17  1  0  0  0  0
 16 29  1  0  0  0  0
 17 18  1  0  0  0  0
 18 30  1  0  0  0  0
 18 31  1  0  0  0  0
 18 32  1  0  0  0  0
M  END
$$$$
