CHEMBL3975193
 OpenBabel04072215373D

 59 63  0  0  0  0  0  0  0  0999 V2000
    0.6041    4.5319    0.7280 C   0  0  0  0  0  0  0  0  0  0  0  0
    2.0101    4.7881    0.7049 O   0  0  0  0  0  0  0  0  0  0  0  0
    2.8474    3.7040    0.7731 C   0  0  0  0  0  0  0  0  0  0  0  0
    2.4085    2.4154    1.1166 C   0  0  0  0  0  0  0  0  0  0  0  0
    3.3047    1.3539    1.1169 C   0  0  0  0  0  0  0  0  0  0  0  0
    2.9907    0.0615    1.4714 O   0  0  0  0  0  0  0  0  0  0  0  0
    1.6886   -0.1575    1.9940 C   0  0  0  0  0  0  0  0  0  0  0  0
    4.6370    1.5554    0.6989 C   0  0  0  0  0  0  0  0  0  0  0  0
    5.1239    2.8152    0.3501 C   0  0  0  0  0  0  0  0  0  0  0  0
    6.4069    2.9953   -0.2118 N   0  0  0  0  0  0  0  0  0  0  0  0
    6.8921    1.9995   -1.3007 C   0  0  0  0  0  0  0  0  0  0  0  0
    5.9629    1.5582   -2.4198 C   0  0  0  0  0  0  0  0  0  0  0  0
    5.1659    1.1797   -3.3797 C   0  0  0  0  0  0  0  0  0  0  0  0
    4.2697    0.7676   -4.4063 C   0  0  0  0  0  0  0  0  0  0  0  0
    4.2147   -0.5487   -4.6641 N   0  0  0  0  0  0  0  0  0  0  0  0
    3.3024   -0.9152   -5.5822 C   0  0  0  0  0  0  0  0  0  0  0  0
    2.4711   -0.0263   -6.2263 C   0  0  0  0  0  0  0  0  0  0  0  0
    2.6361    1.2986   -5.8899 C   0  0  0  0  0  0  0  0  0  0  0  0
    3.5297    1.7284   -4.9814 N   0  0  0  0  0  0  0  0  0  0  0  0
    7.5554    3.6712    0.3607 C   0  0  0  0  0  0  0  0  0  0  0  0
    8.2708    4.4160   -0.5587 C   0  0  0  0  0  0  0  0  0  0  0  0
    9.6407    4.5909   -0.3854 C   0  0  0  0  0  0  0  0  0  0  0  0
   10.2676    4.2280    0.7577 C   0  0  0  0  0  0  0  0  0  0  0  0
   11.6016    4.2389    0.6232 N   0  0  0  0  0  0  0  0  0  0  0  0
   12.3320    4.1865    1.7351 C   0  0  0  0  0  0  0  0  0  0  0  0
   11.7376    4.2098    2.9773 C   0  0  0  0  0  0  0  0  0  0  0  0
   12.6301    4.6299    4.0732 C   0  0  0  0  0  0  0  0  0  0  0  0
   12.7828    5.9046    4.6967 C   0  0  0  0  0  0  0  0  0  0  0  0
   13.8663    5.9861    5.4797 N   0  0  0  0  0  0  0  0  0  0  0  0
   14.4329    4.7754    5.3555 N   0  0  0  0  0  0  0  0  0  0  0  0
   15.4385    4.3301    6.2941 C   0  0  0  0  0  0  0  0  0  0  0  0
   13.8403    4.0161    4.3800 C   0  0  0  0  0  0  0  0  0  0  0  0
   10.3679    4.0125    3.1138 N   0  0  0  0  0  0  0  0  0  0  0  0
    9.5712    3.9176    1.9381 C   0  0  0  0  0  0  0  0  0  0  0  0
    8.1602    3.5518    1.6616 C   0  0  0  0  0  0  0  0  0  0  0  0
    4.2068    3.8875    0.4472 C   0  0  0  0  0  0  0  0  0  0  0  0
    0.0798    5.4429    0.4333 H   0  0  0  0  0  0  0  0  0  0  0  0
    0.2708    4.2701    1.7364 H   0  0  0  0  0  0  0  0  0  0  0  0
    0.3135    3.7506    0.0118 H   0  0  0  0  0  0  0  0  0  0  0  0
    1.3696    2.2538    1.3802 H   0  0  0  0  0  0  0  0  0  0  0  0
    1.6405   -1.1848    2.3597 H   0  0  0  0  0  0  0  0  0  0  0  0
    0.9329   -0.0441    1.2081 H   0  0  0  0  0  0  0  0  0  0  0  0
    1.4746    0.5037    2.8410 H   0  0  0  0  0  0  0  0  0  0  0  0
    5.2901    0.6859    0.6679 H   0  0  0  0  0  0  0  0  0  0  0  0
    7.2077    1.0924   -0.7666 H   0  0  0  0  0  0  0  0  0  0  0  0
    7.7928    2.3716   -1.8023 H   0  0  0  0  0  0  0  0  0  0  0  0
    3.2519   -1.9808   -5.7864 H   0  0  0  0  0  0  0  0  0  0  0  0
    1.7336   -0.3482   -6.9480 H   0  0  0  0  0  0  0  0  0  0  0  0
    2.0314    2.0753   -6.3490 H   0  0  0  0  0  0  0  0  0  0  0  0
    7.8144    4.7210   -1.4930 H   0  0  0  0  0  0  0  0  0  0  0  0
   10.2106    5.0025   -1.2135 H   0  0  0  0  0  0  0  0  0  0  0  0
   13.4042    4.2165    1.5933 H   0  0  0  0  0  0  0  0  0  0  0  0
   12.1738    6.7930    4.5868 H   0  0  0  0  0  0  0  0  0  0  0  0
   15.6280    5.1069    7.0408 H   0  0  0  0  0  0  0  0  0  0  0  0
   16.3606    4.0823    5.7628 H   0  0  0  0  0  0  0  0  0  0  0  0
   15.0392    3.4421    6.7932 H   0  0  0  0  0  0  0  0  0  0  0  0
   14.3118    3.1084    4.0297 H   0  0  0  0  0  0  0  0  0  0  0  0
    7.5806    3.1327    2.4883 H   0  0  0  0  0  0  0  0  0  0  0  0
    4.5401    4.9070    0.2019 H   0  0  0  0  0  0  0  0  0  0  0  0
  1  2  1  0  0  0  0
  1 37  1  0  0  0  0
  1 38  1  0  0  0  0
  1 39  1  0  0  0  0
  2  3  1  0  0  0  0
  3  4  1  0  0  0  0
  3 36  2  0  0  0  0
  4  5  2  0  0  0  0
  4 40  1  0  0  0  0
  5  6  1  0  0  0  0
  5  8  1  0  0  0  0
  6  7  1  0  0  0  0
  7 41  1  0  0  0  0
  7 42  1  0  0  0  0
  7 43  1  0  0  0  0
  8  9  2  0  0  0  0
  8 44  1  0  0  0  0
  9 10  1  0  0  0  0
  9 36  1  0  0  0  0
 10 11  1  0  0  0  0
 10 20  1  0  0  0  0
 11 12  1  0  0  0  0
 11 45  1  0  0  0  0
 11 46  1  0  0  0  0
 12 13  3  0  0  0  0
 13 14  1  0  0  0  0
 14 15  1  0  0  0  0
 14 19  2  0  0  0  0
 15 16  2  0  0  0  0
 16 17  1  0  0  0  0
 16 47  1  0  0  0  0
 17 18  2  0  0  0  0
 17 48  1  0  0  0  0
 18 19  1  0  0  0  0
 18 49  1  0  0  0  0
 20 21  1  0  0  0  0
 20 35  2  0  0  0  0
 21 22  2  0  0  0  0
 21 50  1  0  0  0  0
 22 23  1  0  0  0  0
 22 51  1  0  0  0  0
 23 24  1  0  0  0  0
 23 34  2  0  0  0  0
 24 25  2  0  0  0  0
 25 26  1  0  0  0  0
 25 52  1  0  0  0  0
 26 27  1  0  0  0  0
 26 33  2  0  0  0  0
 27 28  1  0  0  0  0
 27 32  2  0  0  0  0
 28 29  2  0  0  0  0
 28 53  1  0  0  0  0
 29 30  1  0  0  0  0
 30 31  1  0  0  0  0
 30 32  1  0  0  0  0
 31 54  1  0  0  0  0
 31 55  1  0  0  0  0
 31 56  1  0  0  0  0
 32 57  1  0  0  0  0
 33 34  1  0  0  0  0
 34 35  1  0  0  0  0
 35 58  1  0  0  0  0
 36 59  1  0  0  0  0
M  END
$$$$
