CHEMBL4225576
 OpenBabel04072215383D

 69 72  0  0  0  0  0  0  0  0999 V2000
    5.1964    0.1438   -0.8410 C   0  0  0  0  0  0  0  0  0  0  0  0
    4.1517    1.2463   -0.8350 C   0  0  0  0  0  0  0  0  0  0  0  0
    4.2575    1.9405    0.4138 O   0  0  0  0  0  0  0  0  0  0  0  0
    3.5401    1.4119    1.4346 C   0  0  0  0  0  0  0  0  0  0  0  0
    2.6150    0.6222    1.3350 O   0  0  0  0  0  0  0  0  0  0  0  0
    4.1441    1.8197    2.7302 C   0  0  0  0  0  0  0  0  0  0  0  0
    3.5982    1.2998    3.9050 C   0  0  0  0  0  0  0  0  0  0  0  0
    4.2037    1.5589    5.1398 C   0  0  0  0  0  0  0  0  0  0  0  0
    5.3681    2.3344    5.2338 C   0  0  0  0  0  0  0  0  0  0  0  0
    6.0352    2.5899    6.4436 N   0  0  0  0  0  0  0  0  0  0  0  0
    5.7107    2.1526    7.7010 C   0  0  0  0  0  0  0  0  0  0  0  0
    6.3526    2.4397    8.8403 C   0  0  0  0  0  0  0  0  0  0  0  0
    5.8196    1.8999   10.1213 C   0  0  0  0  0  0  0  0  0  0  0  0
    5.1223    0.8932   10.1673 O   0  0  0  0  0  0  0  0  0  0  0  0
    6.1833    2.6195   11.3672 C   0  0  0  0  0  0  0  0  0  0  0  0
    6.4259    3.9976   11.3749 C   0  0  0  0  0  0  0  0  0  0  0  0
    6.7465    4.6481   12.5683 C   0  0  0  0  0  0  0  0  0  0  0  0
    6.8464    3.9240   13.7563 C   0  0  0  0  0  0  0  0  0  0  0  0
    7.3170    4.5052   14.9430 N   0  0  0  0  0  0  0  0  0  0  0  0
    7.3133    5.8254   15.3421 C   0  0  0  0  0  0  0  0  0  0  0  0
    6.0457    6.8979   15.1749 S   0  0  0  0  0  0  0  0  0  0  0  0
    8.4219    6.1836   16.0822 N   0  0  0  0  0  0  0  0  0  0  0  0
    9.7324    5.7167   15.8494 C   0  0  0  0  0  0  0  0  0  0  0  0
   10.1220    5.2632   14.5814 C   0  0  0  0  0  0  0  0  0  0  0  0
   11.3695    4.6801   14.3840 C   0  0  0  0  0  0  0  0  0  0  0  0
   12.2462    4.5757   15.4615 C   0  0  0  0  0  0  0  0  0  0  0  0
   13.7473    3.6378   15.2592 S   0  0  0  0  0  0  0  0  0  0  0  0
   14.1678    3.1840   16.5672 O   0  0  0  0  0  0  0  0  0  0  0  0
   13.5045    2.6902   14.1879 O   0  0  0  0  0  0  0  0  0  0  0  0
   14.8531    4.7558   14.6594 N   0  0  0  0  0  0  0  0  0  0  0  0
   15.1417    5.8388   15.5088 C   0  0  0  0  0  0  0  0  0  0  0  0
   16.0276    5.7369   16.5662 C   0  0  0  0  0  0  0  0  0  0  0  0
   16.2483    6.8752   17.3341 C   0  0  0  0  0  0  0  0  0  0  0  0
   15.5567    8.0444   17.0308 C   0  0  0  0  0  0  0  0  0  0  0  0
   14.6706    8.0267   15.9642 C   0  0  0  0  0  0  0  0  0  0  0  0
   14.4510    6.9443   15.1869 N   0  0  0  0  0  0  0  0  0  0  0  0
   11.9008    5.0999   16.7143 C   0  0  0  0  0  0  0  0  0  0  0  0
   10.6498    5.7012   16.8985 C   0  0  0  0  0  0  0  0  0  0  0  0
    6.6119    2.5441   13.7480 C   0  0  0  0  0  0  0  0  0  0  0  0
    6.2506    1.8983   12.5639 C   0  0  0  0  0  0  0  0  0  0  0  0
    5.8925    2.8711    4.0468 C   0  0  0  0  0  0  0  0  0  0  0  0
    5.2896    2.6203    2.8068 C   0  0  0  0  0  0  0  0  0  0  0  0
    5.2033   -0.3932   -1.7920 H   0  0  0  0  0  0  0  0  0  0  0  0
    5.0108   -0.5714   -0.0321 H   0  0  0  0  0  0  0  0  0  0  0  0
    6.1922    0.5645   -0.6611 H   0  0  0  0  0  0  0  0  0  0  0  0
    3.1444    0.8506   -1.0054 H   0  0  0  0  0  0  0  0  0  0  0  0
    4.3630    1.9672   -1.6308 H   0  0  0  0  0  0  0  0  0  0  0  0
    2.7129    0.6685    3.8699 H   0  0  0  0  0  0  0  0  0  0  0  0
    3.7497    1.1152    6.0201 H   0  0  0  0  0  0  0  0  0  0  0  0
    6.8657    3.1657    6.3681 H   0  0  0  0  0  0  0  0  0  0  0  0
    4.8291    1.5203    7.7531 H   0  0  0  0  0  0  0  0  0  0  0  0
    7.2350    3.0624    8.8621 H   0  0  0  0  0  0  0  0  0  0  0  0
    6.3621    4.5901   10.4664 H   0  0  0  0  0  0  0  0  0  0  0  0
    6.9729    5.7095   12.5357 H   0  0  0  0  0  0  0  0  0  0  0  0
    7.7393    3.8717   15.6132 H   0  0  0  0  0  0  0  0  0  0  0  0
    8.2805    6.8925   16.7931 H   0  0  0  0  0  0  0  0  0  0  0  0
    9.4594    5.3598   13.7257 H   0  0  0  0  0  0  0  0  0  0  0  0
   11.6262    4.2891   13.4023 H   0  0  0  0  0  0  0  0  0  0  0  0
   14.5529    5.0947   13.7503 H   0  0  0  0  0  0  0  0  0  0  0  0
   16.5477    4.8085   16.7763 H   0  0  0  0  0  0  0  0  0  0  0  0
   16.9566    6.8524   18.1580 H   0  0  0  0  0  0  0  0  0  0  0  0
   15.7071    8.9496   17.6093 H   0  0  0  0  0  0  0  0  0  0  0  0
   14.0993    8.9118   15.6975 H   0  0  0  0  0  0  0  0  0  0  0  0
   12.5866    5.0186   17.5541 H   0  0  0  0  0  0  0  0  0  0  0  0
   10.3807    6.0799   17.8811 H   0  0  0  0  0  0  0  0  0  0  0  0
    6.6821    1.9629   14.6645 H   0  0  0  0  0  0  0  0  0  0  0  0
    6.0341    0.8314   12.5759 H   0  0  0  0  0  0  0  0  0  0  0  0
    6.7934    3.4786    4.0681 H   0  0  0  0  0  0  0  0  0  0  0  0
    5.7451    3.0347    1.9103 H   0  0  0  0  0  0  0  0  0  0  0  0
  1  2  1  0  0  0  0
  1 43  1  0  0  0  0
  1 44  1  0  0  0  0
  1 45  1  0  0  0  0
  2  3  1  0  0  0  0
  2 46  1  0  0  0  0
  2 47  1  0  0  0  0
  3  4  1  0  0  0  0
  4  5  2  0  0  0  0
  4  6  1  0  0  0  0
  6  7  1  0  0  0  0
  6 42  2  0  0  0  0
  7  8  2  0  0  0  0
  7 48  1  0  0  0  0
  8  9  1  0  0  0  0
  8 49  1  0  0  0  0
  9 10  1  0  0  0  0
  9 41  2  0  0  0  0
 10 11  1  0  0  0  0
 10 50  1  0  0  0  0
 11 12  2  0  0  0  0
 11 51  1  0  0  0  0
 12 13  1  0  0  0  0
 12 52  1  0  0  0  0
 13 14  2  0  0  0  0
 13 15  1  0  0  0  0
 15 16  1  0  0  0  0
 15 40  2  0  0  0  0
 16 17  2  0  0  0  0
 16 53  1  0  0  0  0
 17 18  1  0  0  0  0
 17 54  1  0  0  0  0
 18 19  1  0  0  0  0
 18 39  2  0  0  0  0
 19 20  1  0  0  0  0
 19 55  1  0  0  0  0
 20 21  2  0  0  0  0
 20 22  1  0  0  0  0
 22 23  1  0  0  0  0
 22 56  1  0  0  0  0
 23 24  1  0  0  0  0
 23 38  2  0  0  0  0
 24 25  2  0  0  0  0
 24 57  1  0  0  0  0
 25 26  1  0  0  0  0
 25 58  1  0  0  0  0
 26 27  1  0  0  0  0
 26 37  2  0  0  0  0
 27 28  2  0  0  0  0
 27 29  2  0  0  0  0
 27 30  1  0  0  0  0
 30 31  1  0  0  0  0
 30 59  1  0  0  0  0
 31 32  1  0  0  0  0
 31 36  2  0  0  0  0
 32 33  2  0  0  0  0
 32 60  1  0  0  0  0
 33 34  1  0  0  0  0
 33 61  1  0  0  0  0
 34 35  2  0  0  0  0
 34 62  1  0  0  0  0
 35 36  1  0  0  0  0
 35 63  1  0  0  0  0
 37 38  1  0  0  0  0
 37 64  1  0  0  0  0
 38 65  1  0  0  0  0
 39 40  1  0  0  0  0
 39 66  1  0  0  0  0
 40 67  1  0  0  0  0
 41 42  1  0  0  0  0
 41 68  1  0  0  0  0
 42 69  1  0  0  0  0
M  END
$$$$
