CHEMBL1993722
 OpenBabel04072215363D

 46 49  0  0  0  0  0  0  0  0999 V2000
   -1.0397    2.0952   -3.1838 N   0  0  0  0  0  0  0  0  0  0  0  0
   -1.3360    0.9897   -2.4856 C   0  0  0  0  0  0  0  0  0  0  0  0
   -1.7388   -0.1036   -3.1249 N   0  0  0  0  0  0  0  0  0  0  0  0
   -1.9521   -0.9850   -2.1471 N   0  0  0  0  0  0  0  0  0  0  0  0
   -1.6948   -0.5102   -0.8907 C   0  0  0  0  0  0  0  0  0  0  0  0
   -1.8005   -1.1496    0.3468 C   0  0  0  0  0  0  0  0  0  0  0  0
   -1.4449   -0.4177    1.4738 C   0  0  0  0  0  0  0  0  0  0  0  0
   -1.0101    0.9006    1.3579 C   0  0  0  0  0  0  0  0  0  0  0  0
   -0.9142    1.5632    0.1089 C   0  0  0  0  0  0  0  0  0  0  0  0
   -0.4430    2.9618    0.0452 C   0  0  0  0  0  0  0  0  0  0  0  0
    0.4821    3.3698   -0.9166 C   0  0  0  0  0  0  0  0  0  0  0  0
    0.8630    4.7048   -1.0470 C   0  0  0  0  0  0  0  0  0  0  0  0
    0.4026    5.6797   -0.1652 C   0  0  0  0  0  0  0  0  0  0  0  0
    0.7811    7.0415   -0.2611 N   0  0  0  0  0  0  0  0  0  0  0  0
    1.3971    7.6114   -1.3570 C   0  0  0  0  0  0  0  0  0  0  0  0
    1.5682    7.0602   -2.4414 O   0  0  0  0  0  0  0  0  0  0  0  0
    1.8456    8.9020   -1.1015 N   0  0  0  0  0  0  0  0  0  0  0  0
    2.5635    9.5828   -2.1214 C   0  0  0  0  0  0  0  0  0  0  0  0
    2.1008    9.5973   -3.4429 C   0  0  0  0  0  0  0  0  0  0  0  0
    2.9122   10.1019   -4.4638 C   0  0  0  0  0  0  0  0  0  0  0  0
    2.4731   10.1094   -5.8813 C   0  0  0  0  0  0  0  0  0  0  0  0
    2.8447   10.9579   -6.6744 O   0  0  0  0  0  0  0  0  0  0  0  0
    1.6576    9.0907   -6.2215 O   0  0  0  0  0  0  0  0  0  0  0  0
    4.1681   10.6405   -4.1513 C   0  0  0  0  0  0  0  0  0  0  0  0
    4.6044   10.6816   -2.8244 C   0  0  0  0  0  0  0  0  0  0  0  0
    3.7930   10.1681   -1.8170 C   0  0  0  0  0  0  0  0  0  0  0  0
    4.2351   10.1676   -0.5507 F   0  0  0  0  0  0  0  0  0  0  0  0
   -0.4457    5.2800    0.8771 C   0  0  0  0  0  0  0  0  0  0  0  0
   -0.8695    3.9413    0.9634 C   0  0  0  0  0  0  0  0  0  0  0  0
   -1.2703    0.8127   -1.0586 C   0  0  0  0  0  0  0  0  0  0  0  0
   -1.2713    2.0718   -4.1702 H   0  0  0  0  0  0  0  0  0  0  0  0
   -1.1365    3.0125   -2.7665 H   0  0  0  0  0  0  0  0  0  0  0  0
   -2.2730   -1.9106   -2.4029 H   0  0  0  0  0  0  0  0  0  0  0  0
   -2.1364   -2.1780    0.4308 H   0  0  0  0  0  0  0  0  0  0  0  0
   -1.5005   -0.8824    2.4554 H   0  0  0  0  0  0  0  0  0  0  0  0
   -0.7203    1.4222    2.2690 H   0  0  0  0  0  0  0  0  0  0  0  0
    0.9132    2.6486   -1.6093 H   0  0  0  0  0  0  0  0  0  0  0  0
    1.5366    4.9379   -1.8662 H   0  0  0  0  0  0  0  0  0  0  0  0
    0.4174    7.6754    0.4340 H   0  0  0  0  0  0  0  0  0  0  0  0
    2.2030    9.0386   -0.1625 H   0  0  0  0  0  0  0  0  0  0  0  0
    1.1113    9.2035   -3.6635 H   0  0  0  0  0  0  0  0  0  0  0  0
    1.5699    8.3756   -5.5615 H   0  0  0  0  0  0  0  0  0  0  0  0
    4.8080   11.0250   -4.9445 H   0  0  0  0  0  0  0  0  0  0  0  0
    5.5809   11.0865   -2.5770 H   0  0  0  0  0  0  0  0  0  0  0  0
   -0.7963    5.9916    1.6134 H   0  0  0  0  0  0  0  0  0  0  0  0
   -1.5511    3.6749    1.7690 H   0  0  0  0  0  0  0  0  0  0  0  0
  1  2  1  0  0  0  0
  1 31  1  0  0  0  0
  1 32  1  0  0  0  0
  2  3  2  0  0  0  0
  2 30  1  0  0  0  0
  3  4  1  0  0  0  0
  4  5  1  0  0  0  0
  4 33  1  0  0  0  0
  5  6  1  0  0  0  0
  5 30  2  0  0  0  0
  6  7  2  0  0  0  0
  6 34  1  0  0  0  0
  7  8  1  0  0  0  0
  7 35  1  0  0  0  0
  8  9  2  0  0  0  0
  8 36  1  0  0  0  0
  9 10  1  0  0  0  0
  9 30  1  0  0  0  0
 10 11  1  0  0  0  0
 10 29  2  0  0  0  0
 11 12  2  0  0  0  0
 11 37  1  0  0  0  0
 12 13  1  0  0  0  0
 12 38  1  0  0  0  0
 13 14  1  0  0  0  0
 13 28  2  0  0  0  0
 14 15  1  0  0  0  0
 14 39  1  0  0  0  0
 15 16  2  0  0  0  0
 15 17  1  0  0  0  0
 17 18  1  0  0  0  0
 17 40  1  0  0  0  0
 18 19  1  0  0  0  0
 18 26  2  0  0  0  0
 19 20  2  0  0  0  0
 19 41  1  0  0  0  0
 20 21  1  0  0  0  0
 20 24  1  0  0  0  0
 21 22  2  0  0  0  0
 21 23  1  0  0  0  0
 23 42  1  0  0  0  0
 24 25  2  0  0  0  0
 24 43  1  0  0  0  0
 25 26  1  0  0  0  0
 25 44  1  0  0  0  0
 26 27  1  0  0  0  0
 28 29  1  0  0  0  0
 28 45  1  0  0  0  0
 29 46  1  0  0  0  0
M  END
$$$$
