CHEMBL493877
 OpenBabel04072215383D

 73 77  0  0  0  0  0  0  0  0999 V2000
   11.8579   -1.1034    5.3444 C   0  0  0  0  0  0  0  0  0  0  0  0
   11.1724   -0.1903    4.4800 O   0  0  0  0  0  0  0  0  0  0  0  0
    9.9535    0.2400    4.9354 C   0  0  0  0  0  0  0  0  0  0  0  0
    9.6920    0.3531    6.3079 C   0  0  0  0  0  0  0  0  0  0  0  0
    8.4358    0.6441    6.8182 C   0  0  0  0  0  0  0  0  0  0  0  0
    8.3034    0.6784    8.1526 N   0  0  0  0  0  0  0  0  0  0  0  0
    7.0772    0.8933    8.6604 C   0  0  0  0  0  0  0  0  0  0  0  0
    5.9476    1.0529    7.8841 C   0  0  0  0  0  0  0  0  0  0  0  0
    6.0655    1.0089    6.4863 C   0  0  0  0  0  0  0  0  0  0  0  0
    4.7832    1.1223    5.6671 C   0  0  0  0  0  0  0  0  0  0  0  0
    3.7731    0.1445    6.0833 N   0  0  0  0  0  0  0  0  0  0  0  0
    3.9862   -1.2343    5.6631 C   0  0  0  0  0  0  0  0  0  0  0  0
    3.1499   -1.7115    4.4669 C   0  0  0  0  0  0  0  0  0  0  0  0
    1.6890   -1.3383    4.5637 C   0  0  0  0  0  0  0  0  0  0  0  0
    1.3565   -0.2162    5.3490 C   0  0  0  0  0  0  0  0  0  0  0  0
    0.0141    0.1934    5.4324 C   0  0  0  0  0  0  0  0  0  0  0  0
   -0.9868   -0.4816    4.7423 C   0  0  0  0  0  0  0  0  0  0  0  0
   -0.6597   -1.5707    3.9395 C   0  0  0  0  0  0  0  0  0  0  0  0
    0.6697   -2.0198    3.8429 C   0  0  0  0  0  0  0  0  0  0  0  0
    0.9876   -3.1126    2.8641 C   0  0  0  0  0  0  0  0  0  0  0  0
    2.0591   -3.0351    2.2606 O   0  0  0  0  0  0  0  0  0  0  0  0
    0.0301   -4.1010    2.6860 N   0  0  0  0  0  0  0  0  0  0  0  0
    0.0629   -5.1564    1.7331 C   0  0  0  0  0  0  0  0  0  0  0  0
    1.1345   -5.3898    0.8758 C   0  0  0  0  0  0  0  0  0  0  0  0
    1.1060   -6.4232   -0.0713 C   0  0  0  0  0  0  0  0  0  0  0  0
   -0.0067   -7.2634   -0.2069 C   0  0  0  0  0  0  0  0  0  0  0  0
   -0.0735   -8.3692   -1.2791 C   0  0  0  0  0  0  0  0  0  0  0  0
    1.1572   -8.3951   -2.2169 C   0  0  0  0  0  0  0  0  0  0  0  0
   -0.1692   -9.7542   -0.6071 C   0  0  0  0  0  0  0  0  0  0  0  0
   -1.3127   -8.1604   -2.1766 C   0  0  0  0  0  0  0  0  0  0  0  0
   -1.0794   -7.0428    0.6779 C   0  0  0  0  0  0  0  0  0  0  0  0
   -1.0436   -6.0073    1.6318 C   0  0  0  0  0  0  0  0  0  0  0  0
    2.3943    0.6189    6.0732 C   0  0  0  0  0  0  0  0  0  0  0  0
    7.3613    0.8498    5.9239 C   0  0  0  0  0  0  0  0  0  0  0  0
    7.6614    0.8756    4.5448 C   0  0  0  0  0  0  0  0  0  0  0  0
    8.9376    0.5745    4.0367 C   0  0  0  0  0  0  0  0  0  0  0  0
    8.9472    0.6216    2.6717 O   0  0  0  0  0  0  0  0  0  0  0  0
   10.1353    0.3816    1.9386 C   0  0  0  0  0  0  0  0  0  0  0  0
   12.5187   -1.7266    4.7340 H   0  0  0  0  0  0  0  0  0  0  0  0
   11.1766   -1.7813    5.8740 H   0  0  0  0  0  0  0  0  0  0  0  0
   12.4780   -0.5501    6.0577 H   0  0  0  0  0  0  0  0  0  0  0  0
   10.4832    0.1904    7.0389 H   0  0  0  0  0  0  0  0  0  0  0  0
    7.0219    0.9187    9.7441 H   0  0  0  0  0  0  0  0  0  0  0  0
    4.9817    1.1878    8.3602 H   0  0  0  0  0  0  0  0  0  0  0  0
    4.9498    1.0498    4.5892 H   0  0  0  0  0  0  0  0  0  0  0  0
    4.4268    2.1465    5.8454 H   0  0  0  0  0  0  0  0  0  0  0  0
    3.7466   -1.8713    6.5242 H   0  0  0  0  0  0  0  0  0  0  0  0
    5.0448   -1.4307    5.4483 H   0  0  0  0  0  0  0  0  0  0  0  0
    3.2485   -2.8043    4.4301 H   0  0  0  0  0  0  0  0  0  0  0  0
    3.5569   -1.2926    3.5405 H   0  0  0  0  0  0  0  0  0  0  0  0
   -0.2510    1.0690    6.0231 H   0  0  0  0  0  0  0  0  0  0  0  0
   -2.0141   -0.1285    4.7933 H   0  0  0  0  0  0  0  0  0  0  0  0
   -1.4564   -2.0329    3.3574 H   0  0  0  0  0  0  0  0  0  0  0  0
   -0.7880   -4.0780    3.2798 H   0  0  0  0  0  0  0  0  0  0  0  0
    2.0317   -4.7765    0.9040 H   0  0  0  0  0  0  0  0  0  0  0  0
    1.9855   -6.5336   -0.6974 H   0  0  0  0  0  0  0  0  0  0  0  0
    2.0809   -8.6104   -1.6669 H   0  0  0  0  0  0  0  0  0  0  0  0
    1.2859   -7.4385   -2.7375 H   0  0  0  0  0  0  0  0  0  0  0  0
    1.0547   -9.1691   -2.9867 H   0  0  0  0  0  0  0  0  0  0  0  0
    0.7128   -9.9572    0.0114 H   0  0  0  0  0  0  0  0  0  0  0  0
   -0.2368  -10.5506   -1.3584 H   0  0  0  0  0  0  0  0  0  0  0  0
   -1.0515   -9.8418    0.0359 H   0  0  0  0  0  0  0  0  0  0  0  0
   -1.2788   -7.1845   -2.6753 H   0  0  0  0  0  0  0  0  0  0  0  0
   -2.2494   -8.2115   -1.6114 H   0  0  0  0  0  0  0  0  0  0  0  0
   -1.3678   -8.9295   -2.9562 H   0  0  0  0  0  0  0  0  0  0  0  0
   -1.9657   -7.6670    0.6335 H   0  0  0  0  0  0  0  0  0  0  0  0
   -1.9081   -5.8723    2.2778 H   0  0  0  0  0  0  0  0  0  0  0  0
    2.0829    0.6880    7.1230 H   0  0  0  0  0  0  0  0  0  0  0  0
    2.3324    1.6317    5.6577 H   0  0  0  0  0  0  0  0  0  0  0  0
    6.8907    1.1225    3.8192 H   0  0  0  0  0  0  0  0  0  0  0  0
    9.8353    0.2591    0.8912 H   0  0  0  0  0  0  0  0  0  0  0  0
   10.6318   -0.5468    2.2256 H   0  0  0  0  0  0  0  0  0  0  0  0
   10.8079    1.2430    1.9874 H   0  0  0  0  0  0  0  0  0  0  0  0
  1  2  1  0  0  0  0
  1 39  1  0  0  0  0
  1 40  1  0  0  0  0
  1 41  1  0  0  0  0
  2  3  1  0  0  0  0
  3  4  1  0  0  0  0
  3 36  2  0  0  0  0
  4  5  2  0  0  0  0
  4 42  1  0  0  0  0
  5  6  1  0  0  0  0
  5 34  1  0  0  0  0
  6  7  2  0  0  0  0
  7  8  1  0  0  0  0
  7 43  1  0  0  0  0
  8  9  2  0  0  0  0
  8 44  1  0  0  0  0
  9 10  1  0  0  0  0
  9 34  1  0  0  0  0
 10 11  1  0  0  0  0
 10 45  1  0  0  0  0
 10 46  1  0  0  0  0
 11 12  1  0  0  0  0
 11 33  1  0  0  0  0
 12 13  1  0  0  0  0
 12 47  1  0  0  0  0
 12 48  1  0  0  0  0
 13 14  1  0  0  0  0
 13 49  1  0  0  0  0
 13 50  1  0  0  0  0
 14 15  1  0  0  0  0
 14 19  2  0  0  0  0
 15 16  2  0  0  0  0
 15 33  1  0  0  0  0
 16 17  1  0  0  0  0
 16 51  1  0  0  0  0
 17 18  2  0  0  0  0
 17 52  1  0  0  0  0
 18 19  1  0  0  0  0
 18 53  1  0  0  0  0
 19 20  1  0  0  0  0
 20 21  2  0  0  0  0
 20 22  1  0  0  0  0
 22 23  1  0  0  0  0
 22 54  1  0  0  0  0
 23 24  1  0  0  0  0
 23 32  2  0  0  0  0
 24 25  2  0  0  0  0
 24 55  1  0  0  0  0
 25 26  1  0  0  0  0
 25 56  1  0  0  0  0
 26 27  1  0  0  0  0
 26 31  2  0  0  0  0
 27 28  1  0  0  0  0
 27 29  1  0  0  0  0
 27 30  1  0  0  0  0
 28 57  1  0  0  0  0
 28 58  1  0  0  0  0
 28 59  1  0  0  0  0
 29 60  1  0  0  0  0
 29 61  1  0  0  0  0
 29 62  1  0  0  0  0
 30 63  1  0  0  0  0
 30 64  1  0  0  0  0
 30 65  1  0  0  0  0
 31 32  1  0  0  0  0
 31 66  1  0  0  0  0
 32 67  1  0  0  0  0
 33 68  1  0  0  0  0
 33 69  1  0  0  0  0
 34 35  2  0  0  0  0
 35 36  1  0  0  0  0
 35 70  1  0  0  0  0
 36 37  1  0  0  0  0
 37 38  1  0  0  0  0
 38 71  1  0  0  0  0
 38 72  1  0  0  0  0
 38 73  1  0  0  0  0
M  END
$$$$
