CHEMBL1076472
 OpenBabel04072215353D

 75 80  0  0  1  0  0  0  0  0999 V2000
    0.0532   -1.6467    2.8855 C   0  0  0  0  0  0  0  0  0  0  0  0
    0.7970   -0.6530    2.0308 C   0  0  0  0  0  0  0  0  0  0  0  0
    0.8111    0.6895    2.4057 C   0  0  0  0  0  0  0  0  0  0  0  0
    1.4972    1.6273    1.6372 C   0  0  0  0  0  0  0  0  0  0  0  0
    2.1974    1.2447    0.4907 C   0  0  0  0  0  0  0  0  0  0  0  0
    2.9103    2.1579   -0.3227 N   0  0  0  0  0  0  0  0  0  0  0  0
    3.0033    3.5265   -0.1309 C   0  0  0  0  0  0  0  0  0  0  0  0
    2.4552    4.1831    0.7476 O   0  0  0  0  0  0  0  0  0  0  0  0
    3.8348    4.2811   -1.1078 C   0  0  0  0  0  0  0  0  0  0  0  0
    4.9661    3.7319   -1.7240 C   0  0  0  0  0  0  0  0  0  0  0  0
    5.7383    4.5171   -2.5845 C   0  0  0  0  0  0  0  0  0  0  0  0
    5.3849    5.8449   -2.8383 C   0  0  0  0  0  0  0  0  0  0  0  0
    4.2496    6.4078   -2.2382 C   0  0  0  0  0  0  0  0  0  0  0  0
    3.8366    7.8333   -2.5139 C   0  0  0  0  0  0  0  0  0  0  0  0
    4.6610    8.4779   -3.3865 F   0  0  0  0  0  0  0  0  0  0  0  0
    2.5894    7.9133   -3.0548 F   0  0  0  0  0  0  0  0  0  0  0  0
    3.8098    8.6005   -1.3903 F   0  0  0  0  0  0  0  0  0  0  0  0
    3.4890    5.6162   -1.3655 C   0  0  0  0  0  0  0  0  0  0  0  0
    2.1779   -0.1046    0.1006 C   0  0  0  0  0  0  0  0  0  0  0  0
    1.4706   -1.0536    0.8500 C   0  0  0  0  0  0  0  0  0  0  0  0
    1.2083   -2.3561    0.3813 N   0  0  0  0  0  0  0  0  0  0  0  0
    1.8915   -3.1479   -0.4870 C   0  0  0  0  0  0  0  0  0  0  0  0
    1.1877   -3.9551   -1.2730 N   0  0  0  0  0  0  0  0  0  0  0  0
    1.3682   -5.1789   -0.6744 C   0  0  0  0  0  0  0  0  0  0  0  0
    0.5791   -6.3336   -0.7272 C   0  0  0  0  0  0  0  0  0  0  0  0
    0.8930   -7.3889    0.1392 C   0  0  0  0  0  0  0  0  0  0  0  0
    2.0070   -7.3261    0.9826 C   0  0  0  0  0  0  0  0  0  0  0  0
    2.8599   -6.2180    0.9817 C   0  0  0  0  0  0  0  0  0  0  0  0
    2.4907   -5.1535    0.1509 C   0  0  0  0  0  0  0  0  0  0  0  0
    3.0108   -3.8858   -0.0910 N   0  0  0  0  0  0  0  0  0  0  0  0
    4.3809   -3.5330   -0.2058 C   0  0  0  0  0  0  0  0  0  0  0  0
    5.2752   -4.5378   -0.5418 C   0  0  0  0  0  0  0  0  0  0  0  0
    6.6088   -4.2061   -0.6605 C   0  0  0  0  0  0  0  0  0  0  0  0
    7.4965   -5.2425   -0.9381 N   0  0  0  0  0  0  0  0  0  0  0  0
    8.9277   -5.0086   -0.8467 C   0  0  0  0  0  0  0  0  0  0  0  0
    9.5417   -6.2554   -0.2047 C   0  0  0  0  0  0  0  0  0  0  0  0
   11.0139   -6.0741    0.1393 C   0  0  3  0  0  0  0  0  0  0  0  0
   11.9103   -5.8460   -1.0654 C   0  0  0  0  0  0  0  0  0  0  0  0
   13.2828   -6.1918   -0.5199 C   0  0  0  0  0  0  0  0  0  0  0  0
   13.0174   -7.2527    0.5404 C   0  0  0  0  0  0  0  0  0  0  0  0
   11.5655   -7.3059    0.7140 N   0  0  0  0  0  0  0  0  0  0  0  0
    7.0333   -2.9595   -0.4249 N   0  0  0  0  0  0  0  0  0  0  0  0
    6.0913   -2.0453   -0.1316 C   0  0  0  0  0  0  0  0  0  0  0  0
    4.7672   -2.2546   -0.0492 N   0  0  0  0  0  0  0  0  0  0  0  0
   -0.3814   -1.1679    3.7682 H   0  0  0  0  0  0  0  0  0  0  0  0
    0.7347   -2.4269    3.2372 H   0  0  0  0  0  0  0  0  0  0  0  0
   -0.7683   -2.1053    2.3232 H   0  0  0  0  0  0  0  0  0  0  0  0
    0.2718    1.0236    3.2884 H   0  0  0  0  0  0  0  0  0  0  0  0
    1.4498    2.6587    1.9684 H   0  0  0  0  0  0  0  0  0  0  0  0
    3.3424    1.7621   -1.1469 H   0  0  0  0  0  0  0  0  0  0  0  0
    5.2847    2.7156   -1.5155 H   0  0  0  0  0  0  0  0  0  0  0  0
    6.6285    4.0972   -3.0475 H   0  0  0  0  0  0  0  0  0  0  0  0
    6.0066    6.4427   -3.5040 H   0  0  0  0  0  0  0  0  0  0  0  0
    2.6139    6.0480   -0.8748 H   0  0  0  0  0  0  0  0  0  0  0  0
    2.6736   -0.4167   -0.8123 H   0  0  0  0  0  0  0  0  0  0  0  0
    0.2216   -2.3683    0.1172 H   0  0  0  0  0  0  0  0  0  0  0  0
   -0.3017   -6.3637   -1.3577 H   0  0  0  0  0  0  0  0  0  0  0  0
    0.2403   -8.2581    0.1748 H   0  0  0  0  0  0  0  0  0  0  0  0
    2.2054   -8.1494    1.6669 H   0  0  0  0  0  0  0  0  0  0  0  0
    3.7158   -6.1610    1.6462 H   0  0  0  0  0  0  0  0  0  0  0  0
    4.9643   -5.5566   -0.7379 H   0  0  0  0  0  0  0  0  0  0  0  0
    7.2221   -5.7922   -1.7468 H   0  0  0  0  0  0  0  0  0  0  0  0
    9.1749   -4.1348   -0.2338 H   0  0  0  0  0  0  0  0  0  0  0  0
    9.3395   -4.8435   -1.8495 H   0  0  0  0  0  0  0  0  0  0  0  0
    9.4014   -7.1161   -0.8730 H   0  0  0  0  0  0  0  0  0  0  0  0
    8.9889   -6.4916    0.7154 H   0  0  0  0  0  0  0  0  0  0  0  0
   11.1332   -5.2526    0.8582 H   0  0  0  0  0  0  0  0  0  0  0  0
   11.8662   -4.8182   -1.4378 H   0  0  0  0  0  0  0  0  0  0  0  0
   11.6508   -6.5223   -1.8899 H   0  0  0  0  0  0  0  0  0  0  0  0
   13.7280   -5.3049   -0.0533 H   0  0  0  0  0  0  0  0  0  0  0  0
   13.9585   -6.5412   -1.3057 H   0  0  0  0  0  0  0  0  0  0  0  0
   13.5196   -6.9957    1.4790 H   0  0  0  0  0  0  0  0  0  0  0  0
   13.3810   -8.2328    0.2169 H   0  0  0  0  0  0  0  0  0  0  0  0
   11.3163   -7.3952    1.6976 H   0  0  0  0  0  0  0  0  0  0  0  0
    6.4440   -1.0411    0.0732 H   0  0  0  0  0  0  0  0  0  0  0  0
  1  2  1  0  0  0  0
  1 45  1  0  0  0  0
  1 46  1  0  0  0  0
  1 47  1  0  0  0  0
  2  3  1  0  0  0  0
  2 20  2  0  0  0  0
  3  4  2  0  0  0  0
  3 48  1  0  0  0  0
  4  5  1  0  0  0  0
  4 49  1  0  0  0  0
  5  6  1  0  0  0  0
  5 19  2  0  0  0  0
  6  7  1  0  0  0  0
  6 50  1  0  0  0  0
  7  8  2  0  0  0  0
  7  9  1  0  0  0  0
  9 10  1  0  0  0  0
  9 18  2  0  0  0  0
 10 11  2  0  0  0  0
 10 51  1  0  0  0  0
 11 12  1  0  0  0  0
 11 52  1  0  0  0  0
 12 13  2  0  0  0  0
 12 53  1  0  0  0  0
 13 14  1  0  0  0  0
 13 18  1  0  0  0  0
 14 15  1  0  0  0  0
 14 16  1  0  0  0  0
 14 17  1  0  0  0  0
 18 54  1  0  0  0  0
 19 20  1  0  0  0  0
 19 55  1  0  0  0  0
 20 21  1  0  0  0  0
 21 22  1  0  0  0  0
 21 56  1  0  0  0  0
 22 23  2  0  0  0  0
 22 30  1  0  0  0  0
 23 24  1  0  0  0  0
 24 25  1  0  0  0  0
 24 29  2  0  0  0  0
 25 26  2  0  0  0  0
 25 57  1  0  0  0  0
 26 27  1  0  0  0  0
 26 58  1  0  0  0  0
 27 28  2  0  0  0  0
 27 59  1  0  0  0  0
 28 29  1  0  0  0  0
 28 60  1  0  0  0  0
 29 30  1  0  0  0  0
 30 31  1  0  0  0  0
 31 32  1  0  0  0  0
 31 44  2  0  0  0  0
 32 33  2  0  0  0  0
 32 61  1  0  0  0  0
 33 34  1  0  0  0  0
 33 42  1  0  0  0  0
 34 35  1  0  0  0  0
 34 62  1  0  0  0  0
 35 36  1  0  0  0  0
 35 63  1  0  0  0  0
 35 64  1  0  0  0  0
 36 37  1  0  0  0  0
 36 65  1  0  0  0  0
 36 66  1  0  0  0  0
 37 38  1  0  0  0  0
 37 41  1  0  0  0  0
 37 67  1  0  0  0  0
 38 39  1  0  0  0  0
 38 68  1  0  0  0  0
 38 69  1  0  0  0  0
 39 40  1  0  0  0  0
 39 70  1  0  0  0  0
 39 71  1  0  0  0  0
 40 41  1  0  0  0  0
 40 72  1  0  0  0  0
 40 73  1  0  0  0  0
 41 74  1  0  0  0  0
 42 43  2  0  0  0  0
 43 44  1  0  0  0  0
 43 75  1  0  0  0  0
M  END
$$$$
