CHEMBL1981720
 OpenBabel04072215363D

 31 33  0  0  0  0  0  0  0  0999 V2000
    2.3569    2.6627   -2.0213 O   0  0  0  0  0  0  0  0  0  0  0  0
    2.1093    1.6315   -1.4006 C   0  0  0  0  0  0  0  0  0  0  0  0
    0.7972    1.3478   -1.1136 N   0  0  0  0  0  0  0  0  0  0  0  0
    0.2968    0.3067   -0.3237 C   0  0  0  0  0  0  0  0  0  0  0  0
   -1.0733    0.0755   -0.2670 C   0  0  0  0  0  0  0  0  0  0  0  0
   -1.6237   -0.9188    0.4757 N   0  0  0  0  0  0  0  0  0  0  0  0
   -0.7491   -1.6633    1.1880 C   0  0  0  0  0  0  0  0  0  0  0  0
    0.6120   -1.4334    1.1513 C   0  0  0  0  0  0  0  0  0  0  0  0
    1.1589   -0.4673    0.3798 N   0  0  0  0  0  0  0  0  0  0  0  0
    3.0168    0.6791   -1.0238 N   0  0  0  0  0  0  0  0  0  0  0  0
    4.4232    0.6841   -1.1218 C   0  0  0  0  0  0  0  0  0  0  0  0
    5.1152    1.8659   -1.3618 C   0  0  0  0  0  0  0  0  0  0  0  0
    6.4928    1.8271   -1.3440 C   0  0  0  0  0  0  0  0  0  0  0  0
    7.2132    0.7116   -1.1182 N   0  0  0  0  0  0  0  0  0  0  0  0
    6.5505   -0.4395   -0.9152 C   0  0  0  0  0  0  0  0  0  0  0  0
    7.3048   -1.5870   -0.7058 C   0  0  0  0  0  0  0  0  0  0  0  0
    6.7164   -2.8398   -0.5245 C   0  0  0  0  0  0  0  0  0  0  0  0
    5.3355   -2.9554   -0.5566 C   0  0  0  0  0  0  0  0  0  0  0  0
    4.5556   -1.8135   -0.7466 C   0  0  0  0  0  0  0  0  0  0  0  0
    5.1427   -0.5282   -0.9165 C   0  0  0  0  0  0  0  0  0  0  0  0
    0.1498    2.0076   -1.5210 H   0  0  0  0  0  0  0  0  0  0  0  0
   -1.7806    0.6690   -0.8356 H   0  0  0  0  0  0  0  0  0  0  0  0
   -1.1724   -2.4572    1.7922 H   0  0  0  0  0  0  0  0  0  0  0  0
    1.3078   -2.0186    1.7424 H   0  0  0  0  0  0  0  0  0  0  0  0
    2.5933   -0.1210   -0.5650 H   0  0  0  0  0  0  0  0  0  0  0  0
    4.6175    2.8149   -1.5135 H   0  0  0  0  0  0  0  0  0  0  0  0
    7.0749    2.7299   -1.5064 H   0  0  0  0  0  0  0  0  0  0  0  0
    8.3897   -1.5036   -0.6921 H   0  0  0  0  0  0  0  0  0  0  0  0
    7.3402   -3.7164   -0.3727 H   0  0  0  0  0  0  0  0  0  0  0  0
    4.8660   -3.9294   -0.4437 H   0  0  0  0  0  0  0  0  0  0  0  0
    3.4781   -1.9463   -0.7931 H   0  0  0  0  0  0  0  0  0  0  0  0
  1  2  2  0  0  0  0
  2  3  1  0  0  0  0
  2 10  1  0  0  0  0
  3  4  1  0  0  0  0
  3 21  1  0  0  0  0
  4  5  1  0  0  0  0
  4  9  2  0  0  0  0
  5  6  2  0  0  0  0
  5 22  1  0  0  0  0
  6  7  1  0  0  0  0
  7  8  2  0  0  0  0
  7 23  1  0  0  0  0
  8  9  1  0  0  0  0
  8 24  1  0  0  0  0
 10 11  1  0  0  0  0
 10 25  1  0  0  0  0
 11 12  1  0  0  0  0
 11 20  2  0  0  0  0
 12 13  2  0  0  0  0
 12 26  1  0  0  0  0
 13 14  1  0  0  0  0
 13 27  1  0  0  0  0
 14 15  2  0  0  0  0
 15 16  1  0  0  0  0
 15 20  1  0  0  0  0
 16 17  2  0  0  0  0
 16 28  1  0  0  0  0
 17 18  1  0  0  0  0
 17 29  1  0  0  0  0
 18 19  2  0  0  0  0
 18 30  1  0  0  0  0
 19 20  1  0  0  0  0
 19 31  1  0  0  0  0
M  END
$$$$
