CHEMBL462168
 OpenBabel04072215383D

 59 63  0  0  0  0  0  0  0  0999 V2000
   10.5576   -0.0129    1.6470 C   0  0  0  0  0  0  0  0  0  0  0  0
    9.7838    0.4591    2.7564 O   0  0  0  0  0  0  0  0  0  0  0  0
    8.9434   -0.4625    3.3262 C   0  0  0  0  0  0  0  0  0  0  0  0
    9.2819   -1.8245    3.3528 C   0  0  0  0  0  0  0  0  0  0  0  0
    8.4112   -2.8056    3.8035 C   0  0  0  0  0  0  0  0  0  0  0  0
    8.8090   -4.0830    3.6978 N   0  0  0  0  0  0  0  0  0  0  0  0
    7.9634   -5.0499    4.0985 C   0  0  0  0  0  0  0  0  0  0  0  0
    6.7046   -4.8041    4.6054 C   0  0  0  0  0  0  0  0  0  0  0  0
    6.2756   -3.4803    4.6745 C   0  0  0  0  0  0  0  0  0  0  0  0
    5.0003   -3.1707    5.1240 O   0  0  0  0  0  0  0  0  0  0  0  0
    3.9369   -3.9593    4.7088 C   0  0  0  0  0  0  0  0  0  0  0  0
    2.8992   -4.1529    5.6251 C   0  0  0  0  0  0  0  0  0  0  0  0
    1.7603   -4.9166    5.2926 C   0  0  0  0  0  0  0  0  0  0  0  0
    1.6577   -5.4828    4.0029 C   0  0  0  0  0  0  0  0  0  0  0  0
    0.6996   -6.2649    3.2697 C   0  0  0  0  0  0  0  0  0  0  0  0
   -0.5310   -6.7145    3.7355 N   0  0  0  0  0  0  0  0  0  0  0  0
   -1.4292   -7.4151    2.9448 C   0  0  0  0  0  0  0  0  0  0  0  0
   -1.2592   -7.7831    1.7840 O   0  0  0  0  0  0  0  0  0  0  0  0
   -2.7483   -7.7861    3.5540 C   0  0  0  0  0  0  0  0  0  0  0  0
   -3.3296   -7.0983    4.6234 C   0  0  0  0  0  0  0  0  0  0  0  0
   -4.5972   -7.4693    5.0876 C   0  0  0  0  0  0  0  0  0  0  0  0
   -5.2991   -8.5145    4.4813 C   0  0  0  0  0  0  0  0  0  0  0  0
   -4.7419   -9.2050    3.4006 C   0  0  0  0  0  0  0  0  0  0  0  0
   -5.4947  -10.3121    2.6947 C   0  0  0  0  0  0  0  0  0  0  0  0
   -6.7470  -10.5186    3.1928 F   0  0  0  0  0  0  0  0  0  0  0  0
   -5.6620  -10.0700    1.3648 F   0  0  0  0  0  0  0  0  0  0  0  0
   -4.8592  -11.5130    2.7825 F   0  0  0  0  0  0  0  0  0  0  0  0
   -3.4644   -8.8385    2.9524 C   0  0  0  0  0  0  0  0  0  0  0  0
    1.1416   -6.4980    2.0336 N   0  0  0  0  0  0  0  0  0  0  0  0
    2.3136   -5.8699    1.9480 N   0  0  0  0  0  0  0  0  0  0  0  0
    3.0058   -5.8469    0.6809 C   0  0  0  0  0  0  0  0  0  0  0  0
    2.7002   -5.2484    3.1043 C   0  0  0  0  0  0  0  0  0  0  0  0
    3.8407   -4.4902    3.4173 C   0  0  0  0  0  0  0  0  0  0  0  0
    7.1560   -2.4300    4.3117 C   0  0  0  0  0  0  0  0  0  0  0  0
    6.8619   -1.0485    4.4029 C   0  0  0  0  0  0  0  0  0  0  0  0
    7.7364   -0.0610    3.9070 C   0  0  0  0  0  0  0  0  0  0  0  0
    7.2294    1.1983    4.0665 O   0  0  0  0  0  0  0  0  0  0  0  0
    7.8710    2.3058    3.4529 C   0  0  0  0  0  0  0  0  0  0  0  0
   10.6389    0.7979    0.9160 H   0  0  0  0  0  0  0  0  0  0  0  0
   10.1037   -0.8627    1.1230 H   0  0  0  0  0  0  0  0  0  0  0  0
   11.5652   -0.2725    1.9863 H   0  0  0  0  0  0  0  0  0  0  0  0
   10.2524   -2.1594    2.9975 H   0  0  0  0  0  0  0  0  0  0  0  0
    8.3299   -6.0657    3.9790 H   0  0  0  0  0  0  0  0  0  0  0  0
    6.0740   -5.6311    4.9105 H   0  0  0  0  0  0  0  0  0  0  0  0
    2.9685   -3.7033    6.6130 H   0  0  0  0  0  0  0  0  0  0  0  0
    0.9709   -5.0504    6.0248 H   0  0  0  0  0  0  0  0  0  0  0  0
   -0.7447   -6.5007    4.6961 H   0  0  0  0  0  0  0  0  0  0  0  0
   -2.8432   -6.2445    5.0846 H   0  0  0  0  0  0  0  0  0  0  0  0
   -5.0548   -6.9261    5.9127 H   0  0  0  0  0  0  0  0  0  0  0  0
   -6.2927   -8.7754    4.8470 H   0  0  0  0  0  0  0  0  0  0  0  0
   -3.0278   -9.3688    2.1037 H   0  0  0  0  0  0  0  0  0  0  0  0
    2.4469   -6.4340   -0.0527 H   0  0  0  0  0  0  0  0  0  0  0  0
    4.0022   -6.2726    0.8180 H   0  0  0  0  0  0  0  0  0  0  0  0
    3.0680   -4.8070    0.3524 H   0  0  0  0  0  0  0  0  0  0  0  0
    4.6137   -4.3238    2.6752 H   0  0  0  0  0  0  0  0  0  0  0  0
    5.9226   -0.7275    4.8500 H   0  0  0  0  0  0  0  0  0  0  0  0
    7.1626    3.1415    3.4806 H   0  0  0  0  0  0  0  0  0  0  0  0
    8.0980    2.1272    2.3986 H   0  0  0  0  0  0  0  0  0  0  0  0
    8.7574    2.6086    4.0188 H   0  0  0  0  0  0  0  0  0  0  0  0
  1  2  1  0  0  0  0
  1 39  1  0  0  0  0
  1 40  1  0  0  0  0
  1 41  1  0  0  0  0
  2  3  1  0  0  0  0
  3  4  1  0  0  0  0
  3 36  2  0  0  0  0
  4  5  2  0  0  0  0
  4 42  1  0  0  0  0
  5  6  1  0  0  0  0
  5 34  1  0  0  0  0
  6  7  2  0  0  0  0
  7  8  1  0  0  0  0
  7 43  1  0  0  0  0
  8  9  2  0  0  0  0
  8 44  1  0  0  0  0
  9 10  1  0  0  0  0
  9 34  1  0  0  0  0
 10 11  1  0  0  0  0
 11 12  1  0  0  0  0
 11 33  2  0  0  0  0
 12 13  2  0  0  0  0
 12 45  1  0  0  0  0
 13 14  1  0  0  0  0
 13 46  1  0  0  0  0
 14 15  1  0  0  0  0
 14 32  2  0  0  0  0
 15 16  1  0  0  0  0
 15 29  2  0  0  0  0
 16 17  1  0  0  0  0
 16 47  1  0  0  0  0
 17 18  2  0  0  0  0
 17 19  1  0  0  0  0
 19 20  1  0  0  0  0
 19 28  2  0  0  0  0
 20 21  2  0  0  0  0
 20 48  1  0  0  0  0
 21 22  1  0  0  0  0
 21 49  1  0  0  0  0
 22 23  2  0  0  0  0
 22 50  1  0  0  0  0
 23 24  1  0  0  0  0
 23 28  1  0  0  0  0
 24 25  1  0  0  0  0
 24 26  1  0  0  0  0
 24 27  1  0  0  0  0
 28 51  1  0  0  0  0
 29 30  1  0  0  0  0
 30 31  1  0  0  0  0
 30 32  1  0  0  0  0
 31 52  1  0  0  0  0
 31 53  1  0  0  0  0
 31 54  1  0  0  0  0
 32 33  1  0  0  0  0
 33 55  1  0  0  0  0
 34 35  2  0  0  0  0
 35 36  1  0  0  0  0
 35 56  1  0  0  0  0
 36 37  1  0  0  0  0
 37 38  1  0  0  0  0
 38 57  1  0  0  0  0
 38 58  1  0  0  0  0
 38 59  1  0  0  0  0
M  END
$$$$
