CHEMBL3937212
 OpenBabel04072215373D

 74 77  0  0  0  0  0  0  0  0999 V2000
    0.6837   -3.3477   -2.4055 C   0  0  0  0  0  0  0  0  0  0  0  0
    1.9700   -3.8651   -2.0815 O   0  0  0  0  0  0  0  0  0  0  0  0
    2.9336   -2.9632   -1.6762 C   0  0  0  0  0  0  0  0  0  0  0  0
    2.7327   -1.5831   -1.6351 C   0  0  0  0  0  0  0  0  0  0  0  0
    3.7401   -0.7508   -1.1612 C   0  0  0  0  0  0  0  0  0  0  0  0
    3.6536    0.6144   -1.0561 O   0  0  0  0  0  0  0  0  0  0  0  0
    2.4814    1.2349   -1.5789 C   0  0  0  0  0  0  0  0  0  0  0  0
    4.9496   -1.3062   -0.7090 C   0  0  0  0  0  0  0  0  0  0  0  0
    5.2000   -2.6922   -0.7247 C   0  0  0  0  0  0  0  0  0  0  0  0
    6.3367   -3.2765   -0.1110 N   0  0  0  0  0  0  0  0  0  0  0  0
    6.8818   -2.5684    1.1264 C   0  0  0  0  0  0  0  0  0  0  0  0
    5.9362   -2.3157    2.3424 C   0  0  0  0  0  0  0  0  0  0  0  0
    5.4508   -3.4100    3.2011 N   0  0  0  0  0  0  0  0  0  0  0  0
    6.4248   -4.2092    3.9550 C   0  0  0  0  0  0  0  0  0  0  0  0
    7.3884   -3.4134    4.8432 C   0  0  0  0  0  0  0  0  0  0  0  0
    5.6469   -5.1811    4.8600 C   0  0  0  0  0  0  0  0  0  0  0  0
    7.4429   -4.0022   -0.7158 C   0  0  0  0  0  0  0  0  0  0  0  0
    7.9706   -4.9939    0.1081 C   0  0  0  0  0  0  0  0  0  0  0  0
    9.3062   -5.3247    0.0153 C   0  0  0  0  0  0  0  0  0  0  0  0
   10.0989   -4.8526   -0.9970 C   0  0  0  0  0  0  0  0  0  0  0  0
   11.3948   -5.1058   -0.7951 N   0  0  0  0  0  0  0  0  0  0  0  0
   12.2264   -4.8514   -1.8101 C   0  0  0  0  0  0  0  0  0  0  0  0
   11.7821   -4.4367   -3.0442 C   0  0  0  0  0  0  0  0  0  0  0  0
   12.7206   -4.7110   -4.1496 C   0  0  0  0  0  0  0  0  0  0  0  0
   12.6927   -5.8128   -5.0498 C   0  0  0  0  0  0  0  0  0  0  0  0
   13.8097   -5.9355   -5.7723 N   0  0  0  0  0  0  0  0  0  0  0  0
   14.5823   -4.9271   -5.3369 N   0  0  0  0  0  0  0  0  0  0  0  0
   15.7780   -4.5978   -6.0861 C   0  0  0  0  0  0  0  0  0  0  0  0
   14.0492   -4.2613   -4.2505 C   0  0  0  0  0  0  0  0  0  0  0  0
   14.8217   -3.2001   -3.5234 C   0  0  0  0  0  0  0  0  0  0  0  0
   15.2817   -3.5591   -2.1686 N   0  0  0  0  0  0  0  0  0  0  0  0
   16.3497   -4.5635   -2.1257 C   0  0  0  0  0  0  0  0  0  0  0  0
   15.7756   -2.3391   -1.5079 C   0  0  0  0  0  0  0  0  0  0  0  0
   10.4583   -4.0433   -3.2160 N   0  0  0  0  0  0  0  0  0  0  0  0
    9.5746   -4.1717   -2.1149 C   0  0  0  0  0  0  0  0  0  0  0  0
    8.2094   -3.6800   -1.8857 C   0  0  0  0  0  0  0  0  0  0  0  0
    4.1650   -3.5035   -1.2439 C   0  0  0  0  0  0  0  0  0  0  0  0
    0.0232   -4.1866   -2.6519 H   0  0  0  0  0  0  0  0  0  0  0  0
    0.7219   -2.6915   -3.2836 H   0  0  0  0  0  0  0  0  0  0  0  0
    0.2351   -2.8270   -1.5493 H   0  0  0  0  0  0  0  0  0  0  0  0
    1.7970   -1.1565   -1.9696 H   0  0  0  0  0  0  0  0  0  0  0  0
    2.5979    2.3180   -1.4763 H   0  0  0  0  0  0  0  0  0  0  0  0
    1.5908    0.9436   -1.0106 H   0  0  0  0  0  0  0  0  0  0  0  0
    2.3566    1.0153   -2.6446 H   0  0  0  0  0  0  0  0  0  0  0  0
    5.6925   -0.6178   -0.3149 H   0  0  0  0  0  0  0  0  0  0  0  0
    7.3040   -1.6054    0.8097 H   0  0  0  0  0  0  0  0  0  0  0  0
    7.7382   -3.1043    1.5536 H   0  0  0  0  0  0  0  0  0  0  0  0
    5.0505   -1.7668    2.0101 H   0  0  0  0  0  0  0  0  0  0  0  0
    6.4612   -1.6078    2.9978 H   0  0  0  0  0  0  0  0  0  0  0  0
    4.8395   -4.0189    2.6571 H   0  0  0  0  0  0  0  0  0  0  0  0
    7.0142   -4.8074    3.2533 H   0  0  0  0  0  0  0  0  0  0  0  0
    6.8546   -2.7898    5.5696 H   0  0  0  0  0  0  0  0  0  0  0  0
    8.0520   -2.7741    4.2555 H   0  0  0  0  0  0  0  0  0  0  0  0
    8.0293   -4.0976    5.4162 H   0  0  0  0  0  0  0  0  0  0  0  0
    5.0755   -4.6472    5.6302 H   0  0  0  0  0  0  0  0  0  0  0  0
    6.3319   -5.8641    5.3775 H   0  0  0  0  0  0  0  0  0  0  0  0
    4.9465   -5.7958    4.2853 H   0  0  0  0  0  0  0  0  0  0  0  0
    7.4003   -5.3668    0.9495 H   0  0  0  0  0  0  0  0  0  0  0  0
    9.7553   -5.9307    0.7894 H   0  0  0  0  0  0  0  0  0  0  0  0
   13.2623   -5.0990   -1.6185 H   0  0  0  0  0  0  0  0  0  0  0  0
   11.9206   -6.5610   -5.1823 H   0  0  0  0  0  0  0  0  0  0  0  0
   16.0146   -5.4016   -6.7897 H   0  0  0  0  0  0  0  0  0  0  0  0
   16.6196   -4.4557   -5.4046 H   0  0  0  0  0  0  0  0  0  0  0  0
   15.5711   -3.6779   -6.6405 H   0  0  0  0  0  0  0  0  0  0  0  0
   14.1283   -2.3552   -3.4379 H   0  0  0  0  0  0  0  0  0  0  0  0
   15.6665   -2.8386   -4.1202 H   0  0  0  0  0  0  0  0  0  0  0  0
   16.0799   -5.4858   -2.6469 H   0  0  0  0  0  0  0  0  0  0  0  0
   16.5408   -4.8509   -1.0808 H   0  0  0  0  0  0  0  0  0  0  0  0
   17.2968   -4.1934   -2.5379 H   0  0  0  0  0  0  0  0  0  0  0  0
   14.9962   -1.5704   -1.4813 H   0  0  0  0  0  0  0  0  0  0  0  0
   16.6484   -1.9210   -2.0269 H   0  0  0  0  0  0  0  0  0  0  0  0
   16.0597   -2.5381   -0.4687 H   0  0  0  0  0  0  0  0  0  0  0  0
    7.7709   -3.0066   -2.6377 H   0  0  0  0  0  0  0  0  0  0  0  0
    4.2834   -4.5866   -1.2384 H   0  0  0  0  0  0  0  0  0  0  0  0
  1  2  1  0  0  0  0
  1 38  1  0  0  0  0
  1 39  1  0  0  0  0
  1 40  1  0  0  0  0
  2  3  1  0  0  0  0
  3  4  1  0  0  0  0
  3 37  2  0  0  0  0
  4  5  2  0  0  0  0
  4 41  1  0  0  0  0
  5  6  1  0  0  0  0
  5  8  1  0  0  0  0
  6  7  1  0  0  0  0
  7 42  1  0  0  0  0
  7 43  1  0  0  0  0
  7 44  1  0  0  0  0
  8  9  2  0  0  0  0
  8 45  1  0  0  0  0
  9 10  1  0  0  0  0
  9 37  1  0  0  0  0
 10 11  1  0  0  0  0
 10 17  1  0  0  0  0
 11 12  1  0  0  0  0
 11 46  1  0  0  0  0
 11 47  1  0  0  0  0
 12 13  1  0  0  0  0
 12 48  1  0  0  0  0
 12 49  1  0  0  0  0
 13 14  1  0  0  0  0
 13 50  1  0  0  0  0
 14 15  1  0  0  0  0
 14 16  1  0  0  0  0
 14 51  1  0  0  0  0
 15 52  1  0  0  0  0
 15 53  1  0  0  0  0
 15 54  1  0  0  0  0
 16 55  1  0  0  0  0
 16 56  1  0  0  0  0
 16 57  1  0  0  0  0
 17 18  1  0  0  0  0
 17 36  2  0  0  0  0
 18 19  2  0  0  0  0
 18 58  1  0  0  0  0
 19 20  1  0  0  0  0
 19 59  1  0  0  0  0
 20 21  1  0  0  0  0
 20 35  2  0  0  0  0
 21 22  2  0  0  0  0
 22 23  1  0  0  0  0
 22 60  1  0  0  0  0
 23 24  1  0  0  0  0
 23 34  2  0  0  0  0
 24 25  1  0  0  0  0
 24 29  2  0  0  0  0
 25 26  2  0  0  0  0
 25 61  1  0  0  0  0
 26 27  1  0  0  0  0
 27 28  1  0  0  0  0
 27 29  1  0  0  0  0
 28 62  1  0  0  0  0
 28 63  1  0  0  0  0
 28 64  1  0  0  0  0
 29 30  1  0  0  0  0
 30 31  1  0  0  0  0
 30 65  1  0  0  0  0
 30 66  1  0  0  0  0
 31 32  1  0  0  0  0
 31 33  1  0  0  0  0
 32 67  1  0  0  0  0
 32 68  1  0  0  0  0
 32 69  1  0  0  0  0
 33 70  1  0  0  0  0
 33 71  1  0  0  0  0
 33 72  1  0  0  0  0
 34 35  1  0  0  0  0
 35 36  1  0  0  0  0
 36 73  1  0  0  0  0
 37 74  1  0  0  0  0
M  END
$$$$
