CHEMBL74850
 OpenBabel04072215383D

 39 42  0  0  0  0  0  0  0  0999 V2000
    6.0272   -4.3173   -3.4016 Cl  0  0  0  0  0  0  0  0  0  0  0  0
    5.4244   -3.0891   -2.3581 C   0  0  0  0  0  0  0  0  0  0  0  0
    6.3083   -2.3731   -1.5543 C   0  0  0  0  0  0  0  0  0  0  0  0
    5.8220   -1.3728   -0.7109 C   0  0  0  0  0  0  0  0  0  0  0  0
    4.4592   -1.0625   -0.7081 C   0  0  0  0  0  0  0  0  0  0  0  0
    3.9215   -0.0890    0.1014 O   0  0  0  0  0  0  0  0  0  0  0  0
    4.5460    1.1576    0.1244 C   0  0  0  0  0  0  0  0  0  0  0  0
    5.3892    1.4898   -0.8778 N   0  0  0  0  0  0  0  0  0  0  0  0
    6.0370    2.6781   -0.8461 N   0  0  0  0  0  0  0  0  0  0  0  0
    5.7795    3.5694    0.1417 C   0  0  0  0  0  0  0  0  0  0  0  0
    6.7137    4.7594    0.1644 C   0  0  0  0  0  0  0  0  0  0  0  0
    7.8817    4.5629    1.1112 C   0  0  0  0  0  0  0  0  0  0  0  0
    8.8222    3.5481    0.8863 C   0  0  0  0  0  0  0  0  0  0  0  0
    9.8319    3.3515    1.8159 C   0  0  0  0  0  0  0  0  0  0  0  0
    9.9780    4.0959    2.9316 N   0  0  0  0  0  0  0  0  0  0  0  0
    9.0791    5.0846    3.1194 C   0  0  0  0  0  0  0  0  0  0  0  0
    8.0330    5.3579    2.2496 C   0  0  0  0  0  0  0  0  0  0  0  0
    4.8130    3.3172    1.1419 C   0  0  0  0  0  0  0  0  0  0  0  0
    4.4134    4.2546    2.1280 C   0  0  0  0  0  0  0  0  0  0  0  0
    3.4990    3.9184    3.1275 C   0  0  0  0  0  0  0  0  0  0  0  0
    2.9848    2.6315    3.1912 C   0  0  0  0  0  0  0  0  0  0  0  0
    3.3322    1.7011    2.2144 C   0  0  0  0  0  0  0  0  0  0  0  0
    4.2187    2.0399    1.1619 C   0  0  0  0  0  0  0  0  0  0  0  0
    3.5731   -1.8037   -1.4909 C   0  0  0  0  0  0  0  0  0  0  0  0
    4.0548   -2.8173   -2.3252 C   0  0  0  0  0  0  0  0  0  0  0  0
    7.3736   -2.5817   -1.5786 H   0  0  0  0  0  0  0  0  0  0  0  0
    6.5184   -0.8238   -0.0805 H   0  0  0  0  0  0  0  0  0  0  0  0
    6.1626    5.6771    0.3985 H   0  0  0  0  0  0  0  0  0  0  0  0
    7.1186    4.9227   -0.8442 H   0  0  0  0  0  0  0  0  0  0  0  0
    8.7634    2.9048    0.0127 H   0  0  0  0  0  0  0  0  0  0  0  0
   10.5659    2.5611    1.6861 H   0  0  0  0  0  0  0  0  0  0  0  0
    9.2221    5.6697    4.0235 H   0  0  0  0  0  0  0  0  0  0  0  0
    7.3497    6.1700    2.4717 H   0  0  0  0  0  0  0  0  0  0  0  0
    4.7916    5.2732    2.1140 H   0  0  0  0  0  0  0  0  0  0  0  0
    3.1964    4.6610    3.8614 H   0  0  0  0  0  0  0  0  0  0  0  0
    2.3030    2.3525    3.9912 H   0  0  0  0  0  0  0  0  0  0  0  0
    2.9121    0.6997    2.2782 H   0  0  0  0  0  0  0  0  0  0  0  0
    2.5069   -1.5858   -1.4685 H   0  0  0  0  0  0  0  0  0  0  0  0
    3.3674   -3.3819   -2.9446 H   0  0  0  0  0  0  0  0  0  0  0  0
  1  2  1  0  0  0  0
  2  3  1  0  0  0  0
  2 25  2  0  0  0  0
  3  4  2  0  0  0  0
  3 26  1  0  0  0  0
  4  5  1  0  0  0  0
  4 27  1  0  0  0  0
  5  6  1  0  0  0  0
  5 24  2  0  0  0  0
  6  7  1  0  0  0  0
  7  8  1  0  0  0  0
  7 23  2  0  0  0  0
  8  9  2  0  0  0  0
  9 10  1  0  0  0  0
 10 11  1  0  0  0  0
 10 18  2  0  0  0  0
 11 12  1  0  0  0  0
 11 28  1  0  0  0  0
 11 29  1  0  0  0  0
 12 13  1  0  0  0  0
 12 17  2  0  0  0  0
 13 14  2  0  0  0  0
 13 30  1  0  0  0  0
 14 15  1  0  0  0  0
 14 31  1  0  0  0  0
 15 16  2  0  0  0  0
 16 17  1  0  0  0  0
 16 32  1  0  0  0  0
 17 33  1  0  0  0  0
 18 19  1  0  0  0  0
 18 23  1  0  0  0  0
 19 20  2  0  0  0  0
 19 34  1  0  0  0  0
 20 21  1  0  0  0  0
 20 35  1  0  0  0  0
 21 22  2  0  0  0  0
 21 36  1  0  0  0  0
 22 23  1  0  0  0  0
 22 37  1  0  0  0  0
 24 25  1  0  0  0  0
 24 38  1  0  0  0  0
 25 39  1  0  0  0  0
M  END
$$$$
