CHEMBL67057
 OpenBabel04072215383D

 71 77  0  0  0  0  0  0  0  0999 V2000
   -2.4037   -0.8109    0.3367 C   0  0  0  0  0  0  0  0  0  0  0  0
   -1.0678   -0.1788    0.1567 C   0  0  0  0  0  0  0  0  0  0  0  0
   -0.8519    1.2214    0.0830 C   0  0  0  0  0  0  0  0  0  0  0  0
    0.5082    1.4534    0.0219 C   0  0  0  0  0  0  0  0  0  0  0  0
    1.1589    2.7481    0.0464 C   0  0  0  0  0  0  0  0  0  0  0  0
    0.6098    3.7294   -0.4557 O   0  0  0  0  0  0  0  0  0  0  0  0
    2.3770    2.8799    0.7086 N   0  0  0  0  0  0  0  0  0  0  0  0
    3.1145    1.8329    1.4252 C   0  0  0  0  0  0  0  0  0  0  0  0
    3.6353    2.3251    2.7770 C   0  0  0  0  0  0  0  0  0  0  0  0
    4.3684    3.5485    2.6500 O   0  0  0  0  0  0  0  0  0  0  0  0
    3.5342    4.5706    2.0830 C   0  0  0  0  0  0  0  0  0  0  0  0
    3.0610    4.1743    0.6821 C   0  0  0  0  0  0  0  0  0  0  0  0
    1.0935    0.2173   -0.1429 N   0  0  0  0  0  0  0  0  0  0  0  0
    0.1795   -0.7910    0.0549 C   0  0  0  0  0  0  0  0  0  0  0  0
    0.5472   -2.1665    0.0920 C   0  0  0  0  0  0  0  0  0  0  0  0
    1.7548   -2.7579    0.0238 C   0  0  0  0  0  0  0  0  0  0  0  0
    3.1366   -2.1654   -0.0386 C   0  0  0  0  0  0  0  0  0  0  0  0
    3.4452   -0.9895   -0.0975 O   0  0  0  0  0  0  0  0  0  0  0  0
    4.0080   -3.2378    0.0005 N   0  0  0  0  0  0  0  0  0  0  0  0
    3.3290   -4.4407    0.0532 C   0  0  0  0  0  0  0  0  0  0  0  0
    3.9365   -5.6270    0.0948 N   0  0  0  0  0  0  0  0  0  0  0  0
    3.0811   -6.6558    0.1290 C   0  0  0  0  0  0  0  0  0  0  0  0
    1.7396   -6.5655    0.1140 N   0  0  0  0  0  0  0  0  0  0  0  0
    1.1777   -5.3362    0.0699 C   0  0  0  0  0  0  0  0  0  0  0  0
   -0.2216   -5.2154    0.0237 N   0  0  0  0  0  0  0  0  0  0  0  0
   -1.1329   -6.1299    0.5864 C   0  0  0  0  0  0  0  0  0  0  0  0
   -0.8047   -6.8368    1.7478 C   0  0  0  0  0  0  0  0  0  0  0  0
   -1.6798   -7.7505    2.3218 C   0  0  0  0  0  0  0  0  0  0  0  0
   -2.9244   -7.9202    1.7105 C   0  0  0  0  0  0  0  0  0  0  0  0
   -3.3140   -7.1961    0.5842 C   0  0  0  0  0  0  0  0  0  0  0  0
   -4.6265   -7.6230    0.2426 C   0  0  0  0  0  0  0  0  0  0  0  0
   -4.9970   -8.5979    1.1414 C   0  0  0  0  0  0  0  0  0  0  0  0
   -3.9618   -8.7705    2.0242 N   0  0  0  0  0  0  0  0  0  0  0  0
   -3.9569   -9.6921    3.1543 C   0  0  0  0  0  0  0  0  0  0  0  0
   -3.2887  -11.0230    2.8867 C   0  0  0  0  0  0  0  0  0  0  0  0
   -2.7746  -11.4141    1.6401 C   0  0  0  0  0  0  0  0  0  0  0  0
   -2.2038  -12.6778    1.4673 C   0  0  0  0  0  0  0  0  0  0  0  0
   -2.1360  -13.5675    2.5360 C   0  0  0  0  0  0  0  0  0  0  0  0
   -2.6238  -13.1898    3.7836 C   0  0  0  0  0  0  0  0  0  0  0  0
   -3.1918  -11.9272    3.9580 C   0  0  0  0  0  0  0  0  0  0  0  0
   -2.4136   -6.2665    0.0304 C   0  0  0  0  0  0  0  0  0  0  0  0
    1.9646   -4.2125    0.0440 C   0  0  0  0  0  0  0  0  0  0  0  0
   -3.1952   -0.0522    0.3277 H   0  0  0  0  0  0  0  0  0  0  0  0
   -2.4563   -1.3335    1.2966 H   0  0  0  0  0  0  0  0  0  0  0  0
   -2.6135   -1.5206   -0.4687 H   0  0  0  0  0  0  0  0  0  0  0  0
   -1.6056    1.9985    0.1380 H   0  0  0  0  0  0  0  0  0  0  0  0
    3.9530    1.5538    0.7773 H   0  0  0  0  0  0  0  0  0  0  0  0
    2.5039    0.9545    1.6211 H   0  0  0  0  0  0  0  0  0  0  0  0
    4.3025    1.5719    3.2080 H   0  0  0  0  0  0  0  0  0  0  0  0
    2.8052    2.4750    3.4778 H   0  0  0  0  0  0  0  0  0  0  0  0
    4.1236    5.4907    2.0346 H   0  0  0  0  0  0  0  0  0  0  0  0
    2.6835    4.7488    2.7521 H   0  0  0  0  0  0  0  0  0  0  0  0
    3.9239    4.0535    0.0169 H   0  0  0  0  0  0  0  0  0  0  0  0
    2.4254    4.9638    0.2701 H   0  0  0  0  0  0  0  0  0  0  0  0
    2.0865    0.0780   -0.2974 H   0  0  0  0  0  0  0  0  0  0  0  0
   -0.3173   -2.8128    0.2153 H   0  0  0  0  0  0  0  0  0  0  0  0
    5.0140   -3.1773   -0.0110 H   0  0  0  0  0  0  0  0  0  0  0  0
    3.4978   -7.6572    0.1699 H   0  0  0  0  0  0  0  0  0  0  0  0
   -0.5169   -4.8635   -0.8789 H   0  0  0  0  0  0  0  0  0  0  0  0
    0.1642   -6.6958    2.2207 H   0  0  0  0  0  0  0  0  0  0  0  0
   -1.3802   -8.3181    3.1959 H   0  0  0  0  0  0  0  0  0  0  0  0
   -5.2258   -7.2672   -0.5850 H   0  0  0  0  0  0  0  0  0  0  0  0
   -5.9016   -9.1865    1.2155 H   0  0  0  0  0  0  0  0  0  0  0  0
   -5.0000   -9.8472    3.4502 H   0  0  0  0  0  0  0  0  0  0  0  0
   -3.4470   -9.1817    3.9806 H   0  0  0  0  0  0  0  0  0  0  0  0
   -2.8055  -10.7473    0.7802 H   0  0  0  0  0  0  0  0  0  0  0  0
   -1.8151  -12.9666    0.4938 H   0  0  0  0  0  0  0  0  0  0  0  0
   -1.7021  -14.5538    2.3961 H   0  0  0  0  0  0  0  0  0  0  0  0
   -2.5666  -13.8794    4.6215 H   0  0  0  0  0  0  0  0  0  0  0  0
   -3.5658  -11.6507    4.9421 H   0  0  0  0  0  0  0  0  0  0  0  0
   -2.7078   -5.6927   -0.8423 H   0  0  0  0  0  0  0  0  0  0  0  0
  1  2  1  0  0  0  0
  1 43  1  0  0  0  0
  1 44  1  0  0  0  0
  1 45  1  0  0  0  0
  2  3  1  0  0  0  0
  2 14  2  0  0  0  0
  3  4  2  0  0  0  0
  3 46  1  0  0  0  0
  4  5  1  0  0  0  0
  4 13  1  0  0  0  0
  5  6  2  0  0  0  0
  5  7  1  0  0  0  0
  7  8  1  0  0  0  0
  7 12  1  0  0  0  0
  8  9  1  0  0  0  0
  8 47  1  0  0  0  0
  8 48  1  0  0  0  0
  9 10  1  0  0  0  0
  9 49  1  0  0  0  0
  9 50  1  0  0  0  0
 10 11  1  0  0  0  0
 11 12  1  0  0  0  0
 11 51  1  0  0  0  0
 11 52  1  0  0  0  0
 12 53  1  0  0  0  0
 12 54  1  0  0  0  0
 13 14  1  0  0  0  0
 13 55  1  0  0  0  0
 14 15  1  0  0  0  0
 15 16  2  0  0  0  0
 15 56  1  0  0  0  0
 16 17  1  0  0  0  0
 16 42  1  0  0  0  0
 17 18  2  0  0  0  0
 17 19  1  0  0  0  0
 19 20  1  0  0  0  0
 19 57  1  0  0  0  0
 20 21  1  0  0  0  0
 20 42  2  0  0  0  0
 21 22  2  0  0  0  0
 22 23  1  0  0  0  0
 22 58  1  0  0  0  0
 23 24  2  0  0  0  0
 24 25  1  0  0  0  0
 24 42  1  0  0  0  0
 25 26  1  0  0  0  0
 25 59  1  0  0  0  0
 26 27  1  0  0  0  0
 26 41  2  0  0  0  0
 27 28  2  0  0  0  0
 27 60  1  0  0  0  0
 28 29  1  0  0  0  0
 28 61  1  0  0  0  0
 29 30  2  0  0  0  0
 29 33  1  0  0  0  0
 30 31  1  0  0  0  0
 30 41  1  0  0  0  0
 31 32  2  0  0  0  0
 31 62  1  0  0  0  0
 32 33  1  0  0  0  0
 32 63  1  0  0  0  0
 33 34  1  0  0  0  0
 34 35  1  0  0  0  0
 34 64  1  0  0  0  0
 34 65  1  0  0  0  0
 35 36  1  0  0  0  0
 35 40  2  0  0  0  0
 36 37  2  0  0  0  0
 36 66  1  0  0  0  0
 37 38  1  0  0  0  0
 37 67  1  0  0  0  0
 38 39  2  0  0  0  0
 38 68  1  0  0  0  0
 39 40  1  0  0  0  0
 39 69  1  0  0  0  0
 40 70  1  0  0  0  0
 41 71  1  0  0  0  0
M  END
$$$$
