CHEMBL3902434
 OpenBabel04072215373D

 76 78  0  0  0  0  0  0  0  0999 V2000
    0.4385    0.5275    1.3625 C   0  0  0  0  0  0  0  0  0  0  0  0
    1.7942    0.6638    1.6653 O   0  0  0  0  0  0  0  0  0  0  0  0
    2.7411   -0.3571    1.7494 C   0  0  0  0  0  0  0  0  0  0  0  0
    2.5918   -1.7171    1.5144 C   0  0  0  0  0  0  0  0  0  0  0  0
    3.6144   -2.6496    1.7861 C   0  0  0  0  0  0  0  0  0  0  0  0
    3.4414   -3.9815    1.6576 O   0  0  0  0  0  0  0  0  0  0  0  0
    2.2415   -4.4947    1.2312 C   0  0  0  0  0  0  0  0  0  0  0  0
    4.7912   -2.1868    2.2530 C   0  0  0  0  0  0  0  0  0  0  0  0
    5.0795   -0.8712    2.2766 C   0  0  0  0  0  0  0  0  0  0  0  0
    6.3957   -0.4193    2.5550 N   0  0  0  0  0  0  0  0  0  0  0  0
    6.7913    0.9048    2.1037 C   0  0  0  0  0  0  0  0  0  0  0  0
    8.0224    0.9090    1.2330 C   0  0  0  0  0  0  0  0  0  0  0  0
    8.5599    2.1578    0.6793 N   0  0  0  0  0  0  0  0  0  0  0  0
    8.8280    3.0629    1.7816 C   0  0  0  0  0  0  0  0  0  0  0  0
    9.3709    4.3705    1.3101 C   0  0  0  0  0  0  0  0  0  0  0  0
    8.4933    5.1340    0.4304 C   0  0  0  0  0  0  0  0  0  0  0  0
    9.1660    6.3779    0.0678 N   0  0  0  0  0  0  0  0  0  0  0  0
    9.8301    1.8069   -0.0488 C   0  0  0  0  0  0  0  0  0  0  0  0
   10.9236    1.2283    0.8765 C   0  0  0  0  0  0  0  0  0  0  0  0
    9.5216    0.7776   -1.1161 C   0  0  0  0  0  0  0  0  0  0  0  0
    7.4131   -1.2429    3.2082 C   0  0  0  0  0  0  0  0  0  0  0  0
    8.2603   -0.5279    4.0459 C   0  0  0  0  0  0  0  0  0  0  0  0
    9.1635   -1.1240    4.6717 C   0  0  0  0  0  0  0  0  0  0  0  0
    9.3432   -2.3860    4.5255 C   0  0  0  0  0  0  0  0  0  0  0  0
   10.2938   -2.5758    5.0594 N   0  0  0  0  0  0  0  0  0  0  0  0
   11.2630   -2.7205    5.6073 C   0  0  0  0  0  0  0  0  0  0  0  0
   11.4869   -3.9839    5.6115 C   0  0  0  0  0  0  0  0  0  0  0  0
   13.1102   -3.8872    6.8024 C   0  0  0  0  0  0  0  0  0  0  0  0
   13.7196   -2.7761    7.7491 C   0  0  0  0  0  0  0  0  0  0  0  0
   14.7036   -3.3131    8.5899 N   0  0  0  0  0  0  0  0  0  0  0  0
   14.8634   -4.5971    8.2954 N   0  0  0  0  0  0  0  0  0  0  0  0
   15.7534   -5.5432    9.1247 C   0  0  0  0  0  0  0  0  0  0  0  0
   14.0055   -4.9294    7.2162 C   0  0  0  0  0  0  0  0  0  0  0  0
   10.1433   -4.6002    4.5669 N   0  0  0  0  0  0  0  0  0  0  0  0
    8.9715   -3.4673    3.9318 C   0  0  0  0  0  0  0  0  0  0  0  0
    7.7404   -2.7509    3.0251 C   0  0  0  0  0  0  0  0  0  0  0  0
    3.9821   -0.0243    2.0954 C   0  0  0  0  0  0  0  0  0  0  0  0
    2.0658   -1.0356   -1.7845 Cl  0  0  0  0  0  0  0  0  0  0  0  0
   -0.0103    1.3204    0.6598 H   0  0  0  0  0  0  0  0  0  0  0  0
    0.0484    0.1449    2.2913 H   0  0  0  0  0  0  0  0  0  0  0  0
    0.0889   -0.4093    0.8354 H   0  0  0  0  0  0  0  0  0  0  0  0
    1.6748   -2.0701    1.1833 H   0  0  0  0  0  0  0  0  0  0  0  0
    2.2800   -5.5880    1.1691 H   0  0  0  0  0  0  0  0  0  0  0  0
    1.9894   -4.0841    0.2299 H   0  0  0  0  0  0  0  0  0  0  0  0
    1.4489   -4.1982    1.9471 H   0  0  0  0  0  0  0  0  0  0  0  0
    5.3979   -2.8793    2.6549 H   0  0  0  0  0  0  0  0  0  0  0  0
    7.0412    1.2862    3.0065 H   0  0  0  0  0  0  0  0  0  0  0  0
    6.0261    1.4689    1.5790 H   0  0  0  0  0  0  0  0  0  0  0  0
    7.5491    0.4481    0.3652 H   0  0  0  0  0  0  0  0  0  0  0  0
    8.8040    0.4940    1.8858 H   0  0  0  0  0  0  0  0  0  0  0  0
    9.6359    2.6722    2.3609 H   0  0  0  0  0  0  0  0  0  0  0  0
    7.9446    3.1729    2.4366 H   0  0  0  0  0  0  0  0  0  0  0  0
   10.0383    4.2397    0.5376 H   0  0  0  0  0  0  0  0  0  0  0  0
    9.9053    4.9024    2.1218 H   0  0  0  0  0  0  0  0  0  0  0  0
    7.6005    5.2863    1.0111 H   0  0  0  0  0  0  0  0  0  0  0  0
    8.2957    4.5337   -0.5022 H   0  0  0  0  0  0  0  0  0  0  0  0
    9.4014    6.9115    0.9372 H   0  0  0  0  0  0  0  0  0  0  0  0
    8.4967    6.9296   -0.5021 H   0  0  0  0  0  0  0  0  0  0  0  0
   10.2817    2.6827   -0.5590 H   0  0  0  0  0  0  0  0  0  0  0  0
   10.5955    0.3224    1.3788 H   0  0  0  0  0  0  0  0  0  0  0  0
   11.2627    1.9457    1.6308 H   0  0  0  0  0  0  0  0  0  0  0  0
   11.8105    0.9437    0.3215 H   0  0  0  0  0  0  0  0  0  0  0  0
    9.1049   -0.1278   -0.6388 H   0  0  0  0  0  0  0  0  0  0  0  0
   10.4142    0.4933   -1.6680 H   0  0  0  0  0  0  0  0  0  0  0  0
    8.7998    1.1770   -1.8352 H   0  0  0  0  0  0  0  0  0  0  0  0
    8.3506    0.4969    4.2932 H   0  0  0  0  0  0  0  0  0  0  0  0
    9.8651   -0.6101    5.3443 H   0  0  0  0  0  0  0  0  0  0  0  0
   11.7529   -1.8689    5.9364 H   0  0  0  0  0  0  0  0  0  0  0  0
   13.4970   -1.7515    8.0637 H   0  0  0  0  0  0  0  0  0  0  0  0
   16.3642   -5.0508    9.9477 H   0  0  0  0  0  0  0  0  0  0  0  0
   16.5092   -6.1038    8.5179 H   0  0  0  0  0  0  0  0  0  0  0  0
   15.1682   -6.3357    9.6809 H   0  0  0  0  0  0  0  0  0  0  0  0
   13.9889   -5.8906    6.8907 H   0  0  0  0  0  0  0  0  0  0  0  0
    7.1551   -2.9942    2.1030 H   0  0  0  0  0  0  0  0  0  0  0  0
    3.9621    0.9283    2.2734 H   0  0  0  0  0  0  0  0  0  0  0  0
    1.8456   -0.9891   -0.5550 H   0  0  0  0  0  0  0  0  0  0  0  0
  1  2  1  0  0  0  0
  1 39  1  0  0  0  0
  1 40  1  0  0  0  0
  1 41  1  0  0  0  0
  2  3  1  0  0  0  0
  3  4  1  0  0  0  0
  3 37  2  0  0  0  0
  4  5  2  0  0  0  0
  4 42  1  0  0  0  0
  5  6  1  0  0  0  0
  5  8  1  0  0  0  0
  6  7  1  0  0  0  0
  7 43  1  0  0  0  0
  7 44  1  0  0  0  0
  7 45  1  0  0  0  0
  8  9  2  0  0  0  0
  8 46  1  0  0  0  0
  9 10  1  0  0  0  0
  9 37  1  0  0  0  0
 10 11  1  0  0  0  0
 10 21  1  0  0  0  0
 11 12  1  0  0  0  0
 11 47  1  0  0  0  0
 11 48  1  0  0  0  0
 12 13  1  0  0  0  0
 12 49  1  0  0  0  0
 12 50  1  0  0  0  0
 13 14  1  0  0  0  0
 13 18  1  0  0  0  0
 14 15  1  0  0  0  0
 14 51  1  0  0  0  0
 14 52  1  0  0  0  0
 15 16  1  0  0  0  0
 15 53  1  0  0  0  0
 15 54  1  0  0  0  0
 16 17  1  0  0  0  0
 16 55  1  0  0  0  0
 16 56  1  0  0  0  0
 17 57  1  0  0  0  0
 17 58  1  0  0  0  0
 18 19  1  0  0  0  0
 18 20  1  0  0  0  0
 18 59  1  0  0  0  0
 19 60  1  0  0  0  0
 19 61  1  0  0  0  0
 19 62  1  0  0  0  0
 20 63  1  0  0  0  0
 20 64  1  0  0  0  0
 20 65  1  0  0  0  0
 21 22  1  0  0  0  0
 21 36  2  0  0  0  0
 22 23  2  0  0  0  0
 22 66  1  0  0  0  0
 23 24  1  0  0  0  0
 23 67  1  0  0  0  0
 24 25  1  0  0  0  0
 24 35  2  0  0  0  0
 25 26  2  0  0  0  0
 26 27  1  0  0  0  0
 26 68  1  0  0  0  0
 27 28  1  0  0  0  0
 27 34  2  0  0  0  0
 28 29  1  0  0  0  0
 28 33  2  0  0  0  0
 29 30  2  0  0  0  0
 29 69  1  0  0  0  0
 30 31  1  0  0  0  0
 31 32  1  0  0  0  0
 31 33  1  0  0  0  0
 32 70  1  0  0  0  0
 32 71  1  0  0  0  0
 32 72  1  0  0  0  0
 33 73  1  0  0  0  0
 34 35  1  0  0  0  0
 35 36  1  0  0  0  0
 36 74  1  0  0  0  0
 37 75  1  0  0  0  0
 38 76  1  0  0  0  0
M  END
$$$$
