CHEMBL2023475
 OpenBabel04072215363D

 52 55  0  0  0  0  0  0  0  0999 V2000
    8.7096   -4.8050   -1.2717 C   0  0  0  0  0  0  0  0  0  0  0  0
    9.1656   -5.5857   -0.0565 C   0  0  0  0  0  0  0  0  0  0  0  0
    9.1914   -4.7477    1.1265 N   0  0  0  0  0  0  0  0  0  0  0  0
    8.1472   -4.5501    1.9720 C   0  0  0  0  0  0  0  0  0  0  0  0
    8.6283   -3.8210    3.0413 C   0  0  0  0  0  0  0  0  0  0  0  0
    7.9373   -3.4029    4.1743 N   0  0  0  0  0  0  0  0  0  0  0  0
    6.5661   -3.3315    4.1172 C   0  0  0  0  0  0  0  0  0  0  0  0
    5.9395   -3.6811    3.1158 O   0  0  0  0  0  0  0  0  0  0  0  0
    5.8007   -2.8425    5.3390 C   0  0  0  0  0  0  0  0  0  0  0  0
    6.4425   -1.7400    6.2052 C   0  0  0  0  0  0  0  0  0  0  0  0
    6.2150   -0.3996    5.7918 C   0  0  0  0  0  0  0  0  0  0  0  0
    6.5386    0.7659    6.5156 C   0  0  0  0  0  0  0  0  0  0  0  0
    7.0639    0.6790    7.7873 C   0  0  0  0  0  0  0  0  0  0  0  0
    7.1060    1.9052    8.4308 O   0  0  0  0  0  0  0  0  0  0  0  0
    7.5529    2.4926    9.6316 C   0  0  0  0  0  0  0  0  0  0  0  0
    8.2654    2.0122   11.0409 C   0  0  0  0  0  0  0  0  0  0  0  0
    8.7528    2.8166   12.0764 C   0  0  0  0  0  0  0  0  0  0  0  0
    8.2958    3.6998   11.3010 N   0  0  0  0  0  0  0  0  0  0  0  0
    7.8676    4.6456   10.5542 C   0  0  0  0  0  0  0  0  0  0  0  0
    7.9990    5.9874   10.8355 C   0  0  0  0  0  0  0  0  0  0  0  0
    7.5811    6.8034    9.8325 C   0  0  0  0  0  0  0  0  0  0  0  0
    7.0650    6.2381    8.6531 C   0  0  0  0  0  0  0  0  0  0  0  0
    6.6030    7.0739    7.7208 F   0  0  0  0  0  0  0  0  0  0  0  0
    6.9780    4.8544    8.4387 C   0  0  0  0  0  0  0  0  0  0  0  0
    7.4074    3.9924    9.4712 C   0  0  0  0  0  0  0  0  0  0  0  0
    7.4408   -0.6408    8.1779 C   0  0  0  0  0  0  0  0  0  0  0  0
    7.1731   -1.8613    7.4005 C   0  0  0  0  0  0  0  0  0  0  0  0
    7.6108   -3.1310    7.8144 O   0  0  0  0  0  0  0  0  0  0  0  0
    8.3893   -3.2390    9.0367 C   0  0  0  0  0  0  0  0  0  0  0  0
    9.9704   -3.5876    2.6997 C   0  0  0  0  0  0  0  0  0  0  0  0
   10.3148   -4.1243    1.5230 N   0  0  0  0  0  0  0  0  0  0  0  0
    8.6781   -5.4452   -2.1579 H   0  0  0  0  0  0  0  0  0  0  0  0
    9.3916   -3.9714   -1.4678 H   0  0  0  0  0  0  0  0  0  0  0  0
    7.7102   -4.3873   -1.1123 H   0  0  0  0  0  0  0  0  0  0  0  0
   10.1707   -5.9928   -0.2119 H   0  0  0  0  0  0  0  0  0  0  0  0
    8.4930   -6.4275    0.1532 H   0  0  0  0  0  0  0  0  0  0  0  0
    7.1780   -4.9690    1.7293 H   0  0  0  0  0  0  0  0  0  0  0  0
    8.4439   -2.9914    4.9530 H   0  0  0  0  0  0  0  0  0  0  0  0
    5.5292   -3.7410    5.9067 H   0  0  0  0  0  0  0  0  0  0  0  0
    4.8301   -2.4466    4.9389 H   0  0  0  0  0  0  0  0  0  0  0  0
    5.6933   -0.1287    4.8812 H   0  0  0  0  0  0  0  0  0  0  0  0
    6.2005    1.7116    6.0569 H   0  0  0  0  0  0  0  0  0  0  0  0
    8.4918    0.9825   11.2978 H   0  0  0  0  0  0  0  0  0  0  0  0
    9.0792    3.5725   12.7929 H   0  0  0  0  0  0  0  0  0  0  0  0
    8.4482    6.2556   11.7773 H   0  0  0  0  0  0  0  0  0  0  0  0
    7.6553    7.8631    9.9848 H   0  0  0  0  0  0  0  0  0  0  0  0
    6.6232    4.4680    7.4871 H   0  0  0  0  0  0  0  0  0  0  0  0
    7.8787   -0.7890    9.1440 H   0  0  0  0  0  0  0  0  0  0  0  0
    8.5563   -4.2898    9.3264 H   0  0  0  0  0  0  0  0  0  0  0  0
    7.8732   -2.7873    9.8928 H   0  0  0  0  0  0  0  0  0  0  0  0
    9.3953   -2.8158    8.9155 H   0  0  0  0  0  0  0  0  0  0  0  0
   10.7081   -3.0313    3.2555 H   0  0  0  0  0  0  0  0  0  0  0  0
  1  2  1  0  0  0  0
  1 32  1  0  0  0  0
  1 33  1  0  0  0  0
  1 34  1  0  0  0  0
  2  3  1  0  0  0  0
  2 35  1  0  0  0  0
  2 36  1  0  0  0  0
  3  4  1  0  0  0  0
  3 31  1  0  0  0  0
  4  5  2  0  0  0  0
  4 37  1  0  0  0  0
  5  6  1  0  0  0  0
  5 30  1  0  0  0  0
  6  7  1  0  0  0  0
  6 38  1  0  0  0  0
  7  8  2  0  0  0  0
  7  9  1  0  0  0  0
  9 10  1  0  0  0  0
  9 39  1  0  0  0  0
  9 40  1  0  0  0  0
 10 11  1  0  0  0  0
 10 27  2  0  0  0  0
 11 12  2  0  0  0  0
 11 41  1  0  0  0  0
 12 13  1  0  0  0  0
 12 42  1  0  0  0  0
 13 14  1  0  0  0  0
 13 26  2  0  0  0  0
 14 15  1  0  0  0  0
 15 16  1  0  0  0  0
 15 25  2  0  0  0  0
 16 17  2  0  0  0  0
 16 43  1  0  0  0  0
 17 18  1  0  0  0  0
 17 44  1  0  0  0  0
 18 19  2  0  0  0  0
 19 20  1  0  0  0  0
 19 25  1  0  0  0  0
 20 21  2  0  0  0  0
 20 45  1  0  0  0  0
 21 22  1  0  0  0  0
 21 46  1  0  0  0  0
 22 23  1  0  0  0  0
 22 24  2  0  0  0  0
 24 25  1  0  0  0  0
 24 47  1  0  0  0  0
 26 27  1  0  0  0  0
 26 48  1  0  0  0  0
 27 28  1  0  0  0  0
 28 29  1  0  0  0  0
 29 49  1  0  0  0  0
 29 50  1  0  0  0  0
 29 51  1  0  0  0  0
 30 31  2  0  0  0  0
 30 52  1  0  0  0  0
M  END
$$$$
