CHEMBL4229213
 OpenBabel04072215383D

 45 48  0  0  0  0  0  0  0  0999 V2000
    1.1180    0.3597   -0.4568 O   0  0  0  0  0  0  0  0  0  0  0  0
    2.2390    0.0927   -0.0112 C   0  0  0  0  0  0  0  0  0  0  0  0
    2.8130    0.7444    1.0752 N   0  0  0  0  0  0  0  0  0  0  0  0
    2.1268    1.7764    1.6787 N   0  0  0  0  0  0  0  0  0  0  0  0
    2.7131    2.3901    2.6607 C   0  0  0  0  0  0  0  0  0  0  0  0
    2.0607    3.5069    3.3226 C   0  0  0  0  0  0  0  0  0  0  0  0
    0.8271    4.0761    3.0649 C   0  0  0  0  0  0  0  0  0  0  0  0
    0.5315    5.1692    3.9329 C   0  0  0  0  0  0  0  0  0  0  0  0
    1.5564    5.4100    4.8213 C   0  0  0  0  0  0  0  0  0  0  0  0
    2.8457    4.2998    4.6232 S   0  0  0  0  0  0  0  0  0  0  0  0
    3.0303   -0.9018   -0.5741 N   0  0  0  0  0  0  0  0  0  0  0  0
    2.5929   -1.5493   -1.8076 C   0  0  0  0  0  0  0  0  0  0  0  0
    3.7727   -1.6527   -2.7683 C   0  0  0  0  0  0  0  0  0  0  0  0
    5.0075   -2.1901   -2.0846 C   0  0  0  0  0  0  0  0  0  0  0  0
    6.0018   -2.5952   -2.8986 N   0  0  0  0  0  0  0  0  0  0  0  0
    7.1065   -3.0493   -2.2944 C   0  0  0  0  0  0  0  0  0  0  0  0
    7.2885   -3.1540   -0.9729 N   0  0  0  0  0  0  0  0  0  0  0  0
    6.2875   -2.7349   -0.1748 C   0  0  0  0  0  0  0  0  0  0  0  0
    6.4512   -2.8522    1.2305 N   0  0  0  0  0  0  0  0  0  0  0  0
    7.6990   -2.7792    1.8933 C   0  0  0  0  0  0  0  0  0  0  0  0
    7.9014   -3.4715    3.0962 C   0  0  0  0  0  0  0  0  0  0  0  0
    9.1162   -3.3725    3.7797 C   0  0  0  0  0  0  0  0  0  0  0  0
   10.1217   -2.5518    3.2793 C   0  0  0  0  0  0  0  0  0  0  0  0
   11.2761   -2.4611    3.9556 F   0  0  0  0  0  0  0  0  0  0  0  0
    9.9229   -1.8219    2.1125 C   0  0  0  0  0  0  0  0  0  0  0  0
   11.1477   -0.7731    1.5099 Cl  0  0  0  0  0  0  0  0  0  0  0  0
    8.7139   -1.9264    1.4282 C   0  0  0  0  0  0  0  0  0  0  0  0
    5.1133   -2.2087   -0.6957 C   0  0  0  0  0  0  0  0  0  0  0  0
    4.0064   -1.6909    0.1739 C   0  0  0  0  0  0  0  0  0  0  0  0
    3.8241    0.7680    1.1119 H   0  0  0  0  0  0  0  0  0  0  0  0
    3.7118    2.0897    3.0197 H   0  0  0  0  0  0  0  0  0  0  0  0
    0.1667    3.7230    2.2808 H   0  0  0  0  0  0  0  0  0  0  0  0
   -0.3830    5.7530    3.9007 H   0  0  0  0  0  0  0  0  0  0  0  0
    1.6054    6.1841    5.5781 H   0  0  0  0  0  0  0  0  0  0  0  0
    1.7693   -1.0079   -2.2829 H   0  0  0  0  0  0  0  0  0  0  0  0
    2.2169   -2.5458   -1.5388 H   0  0  0  0  0  0  0  0  0  0  0  0
    4.0120   -0.6549   -3.1563 H   0  0  0  0  0  0  0  0  0  0  0  0
    3.5086   -2.2902   -3.6190 H   0  0  0  0  0  0  0  0  0  0  0  0
    7.9271   -3.3523   -2.9326 H   0  0  0  0  0  0  0  0  0  0  0  0
    5.8766   -3.6144    1.5819 H   0  0  0  0  0  0  0  0  0  0  0  0
    7.1192   -4.1065    3.5054 H   0  0  0  0  0  0  0  0  0  0  0  0
    9.2851   -3.9272    4.6979 H   0  0  0  0  0  0  0  0  0  0  0  0
    8.5606   -1.3420    0.5239 H   0  0  0  0  0  0  0  0  0  0  0  0
    4.3938   -1.1212    1.0208 H   0  0  0  0  0  0  0  0  0  0  0  0
    3.4519   -2.5446    0.5773 H   0  0  0  0  0  0  0  0  0  0  0  0
  1  2  2  0  0  0  0
  2  3  1  0  0  0  0
  2 11  1  0  0  0  0
  3  4  1  0  0  0  0
  3 30  1  0  0  0  0
  4  5  2  0  0  0  0
  5  6  1  0  0  0  0
  5 31  1  0  0  0  0
  6  7  2  0  0  0  0
  6 10  1  0  0  0  0
  7  8  1  0  0  0  0
  7 32  1  0  0  0  0
  8  9  2  0  0  0  0
  8 33  1  0  0  0  0
  9 10  1  0  0  0  0
  9 34  1  0  0  0  0
 11 12  1  0  0  0  0
 11 29  1  0  0  0  0
 12 13  1  0  0  0  0
 12 35  1  0  0  0  0
 12 36  1  0  0  0  0
 13 14  1  0  0  0  0
 13 37  1  0  0  0  0
 13 38  1  0  0  0  0
 14 15  1  0  0  0  0
 14 28  2  0  0  0  0
 15 16  2  0  0  0  0
 16 17  1  0  0  0  0
 16 39  1  0  0  0  0
 17 18  2  0  0  0  0
 18 19  1  0  0  0  0
 18 28  1  0  0  0  0
 19 20  1  0  0  0  0
 19 40  1  0  0  0  0
 20 21  1  0  0  0  0
 20 27  2  0  0  0  0
 21 22  2  0  0  0  0
 21 41  1  0  0  0  0
 22 23  1  0  0  0  0
 22 42  1  0  0  0  0
 23 24  1  0  0  0  0
 23 25  2  0  0  0  0
 25 26  1  0  0  0  0
 25 27  1  0  0  0  0
 27 43  1  0  0  0  0
 28 29  1  0  0  0  0
 29 44  1  0  0  0  0
 29 45  1  0  0  0  0
M  END
$$$$
