CHEMBL462382
 OpenBabel04072215383D

 53 57  0  0  0  0  0  0  0  0999 V2000
   11.1916   -0.2530   -4.6346 C   0  0  0  0  0  0  0  0  0  0  0  0
    9.8730   -0.7306   -4.3404 O   0  0  0  0  0  0  0  0  0  0  0  0
    8.8784    0.2098   -4.4573 C   0  0  0  0  0  0  0  0  0  0  0  0
    9.1370    1.5783   -4.3191 C   0  0  0  0  0  0  0  0  0  0  0  0
    8.1873    2.5535   -4.5736 C   0  0  0  0  0  0  0  0  0  0  0  0
    8.5989    3.8260   -4.4839 N   0  0  0  0  0  0  0  0  0  0  0  0
    7.7336    4.8011   -4.8024 C   0  0  0  0  0  0  0  0  0  0  0  0
    6.4308    4.5658   -5.1743 C   0  0  0  0  0  0  0  0  0  0  0  0
    5.9710    3.2454   -5.1737 C   0  0  0  0  0  0  0  0  0  0  0  0
    4.6397    2.9676   -5.4493 O   0  0  0  0  0  0  0  0  0  0  0  0
    3.6676    3.8429   -4.9722 C   0  0  0  0  0  0  0  0  0  0  0  0
    2.5450    4.0518   -5.7758 C   0  0  0  0  0  0  0  0  0  0  0  0
    1.4989    4.9046   -5.3656 C   0  0  0  0  0  0  0  0  0  0  0  0
    1.5735    5.5368   -4.1042 C   0  0  0  0  0  0  0  0  0  0  0  0
    0.7501    6.4085   -3.3133 C   0  0  0  0  0  0  0  0  0  0  0  0
   -0.4935    6.8952   -3.6820 N   0  0  0  0  0  0  0  0  0  0  0  0
   -1.2966    7.6787   -2.8763 C   0  0  0  0  0  0  0  0  0  0  0  0
   -1.0652    8.0760   -1.7486 O   0  0  0  0  0  0  0  0  0  0  0  0
   -2.6104    8.0863   -3.4746 C   0  0  0  0  0  0  0  0  0  0  0  0
   -3.2004    7.6091   -4.7775 C   0  0  0  0  0  0  0  0  0  0  0  0
   -2.6192    8.9911   -4.6863 C   0  0  0  0  0  0  0  0  0  0  0  0
    1.3315    6.6786   -2.1449 N   0  0  0  0  0  0  0  0  0  0  0  0
    2.4639    5.9714   -2.1498 N   0  0  0  0  0  0  0  0  0  0  0  0
    3.2487    5.8900   -0.9425 C   0  0  0  0  0  0  0  0  0  0  0  0
    2.6945    5.2899   -3.3154 C   0  0  0  0  0  0  0  0  0  0  0  0
    3.7506    4.4550   -3.7145 C   0  0  0  0  0  0  0  0  0  0  0  0
    6.8785    2.1781   -4.9307 C   0  0  0  0  0  0  0  0  0  0  0  0
    6.5941    0.7874   -5.0198 C   0  0  0  0  0  0  0  0  0  0  0  0
    7.5737   -0.1936   -4.7593 C   0  0  0  0  0  0  0  0  0  0  0  0
    7.1410   -1.4806   -4.9406 O   0  0  0  0  0  0  0  0  0  0  0  0
    7.6081   -2.4619   -4.0165 C   0  0  0  0  0  0  0  0  0  0  0  0
   11.8331   -1.1117   -4.8492 H   0  0  0  0  0  0  0  0  0  0  0  0
   11.6139    0.2727   -3.7703 H   0  0  0  0  0  0  0  0  0  0  0  0
   11.2035    0.3927   -5.5214 H   0  0  0  0  0  0  0  0  0  0  0  0
   10.1232    1.9322   -4.0323 H   0  0  0  0  0  0  0  0  0  0  0  0
    8.1250    5.8117   -4.7374 H   0  0  0  0  0  0  0  0  0  0  0  0
    5.7867    5.3988   -5.4208 H   0  0  0  0  0  0  0  0  0  0  0  0
    2.4737    3.5484   -6.7389 H   0  0  0  0  0  0  0  0  0  0  0  0
    0.6377    5.0488   -6.0108 H   0  0  0  0  0  0  0  0  0  0  0  0
   -0.8097    6.6384   -4.6041 H   0  0  0  0  0  0  0  0  0  0  0  0
   -3.3423    8.3176   -2.7012 H   0  0  0  0  0  0  0  0  0  0  0  0
   -4.2825    7.5236   -4.8282 H   0  0  0  0  0  0  0  0  0  0  0  0
   -2.6928    6.8722   -5.3830 H   0  0  0  0  0  0  0  0  0  0  0  0
   -3.2970    9.8373   -4.6718 H   0  0  0  0  0  0  0  0  0  0  0  0
   -1.6782    9.1906   -5.1868 H   0  0  0  0  0  0  0  0  0  0  0  0
    2.8074    6.5283   -0.1730 H   0  0  0  0  0  0  0  0  0  0  0  0
    4.2681    6.2161   -1.1621 H   0  0  0  0  0  0  0  0  0  0  0  0
    3.2390    4.8486   -0.6086 H   0  0  0  0  0  0  0  0  0  0  0  0
    4.6010    4.2955   -3.0594 H   0  0  0  0  0  0  0  0  0  0  0  0
    5.6026    0.4571   -5.3250 H   0  0  0  0  0  0  0  0  0  0  0  0
    6.7488   -3.0839   -3.7372 H   0  0  0  0  0  0  0  0  0  0  0  0
    8.0226   -2.0497   -3.0910 H   0  0  0  0  0  0  0  0  0  0  0  0
    8.3356   -3.1149   -4.5086 H   0  0  0  0  0  0  0  0  0  0  0  0
  1  2  1  0  0  0  0
  1 32  1  0  0  0  0
  1 33  1  0  0  0  0
  1 34  1  0  0  0  0
  2  3  1  0  0  0  0
  3  4  1  0  0  0  0
  3 29  2  0  0  0  0
  4  5  2  0  0  0  0
  4 35  1  0  0  0  0
  5  6  1  0  0  0  0
  5 27  1  0  0  0  0
  6  7  2  0  0  0  0
  7  8  1  0  0  0  0
  7 36  1  0  0  0  0
  8  9  2  0  0  0  0
  8 37  1  0  0  0  0
  9 10  1  0  0  0  0
  9 27  1  0  0  0  0
 10 11  1  0  0  0  0
 11 12  1  0  0  0  0
 11 26  2  0  0  0  0
 12 13  2  0  0  0  0
 12 38  1  0  0  0  0
 13 14  1  0  0  0  0
 13 39  1  0  0  0  0
 14 15  1  0  0  0  0
 14 25  2  0  0  0  0
 15 16  1  0  0  0  0
 15 22  2  0  0  0  0
 16 17  1  0  0  0  0
 16 40  1  0  0  0  0
 17 18  2  0  0  0  0
 17 19  1  0  0  0  0
 19 20  1  0  0  0  0
 19 21  1  0  0  0  0
 19 41  1  0  0  0  0
 20 21  1  0  0  0  0
 20 42  1  0  0  0  0
 20 43  1  0  0  0  0
 21 44  1  0  0  0  0
 21 45  1  0  0  0  0
 22 23  1  0  0  0  0
 23 24  1  0  0  0  0
 23 25  1  0  0  0  0
 24 46  1  0  0  0  0
 24 47  1  0  0  0  0
 24 48  1  0  0  0  0
 25 26  1  0  0  0  0
 26 49  1  0  0  0  0
 27 28  2  0  0  0  0
 28 29  1  0  0  0  0
 28 50  1  0  0  0  0
 29 30  1  0  0  0  0
 30 31  1  0  0  0  0
 31 51  1  0  0  0  0
 31 52  1  0  0  0  0
 31 53  1  0  0  0  0
M  END
$$$$
