CHEMBL3939828
 OpenBabel04072215373D

 44 47  0  0  1  0  0  0  0  0999 V2000
    1.2091   -0.9741   -0.9567 C   0  0  0  0  0  0  0  0  0  0  0  0
    2.1457   -0.4779   -0.0187 O   0  0  0  0  0  0  0  0  0  0  0  0
    2.8997   -1.3108    0.7587 C   0  0  0  0  0  0  0  0  0  0  0  0
    4.0358   -0.6276    1.2498 C   0  0  0  0  0  0  0  0  0  0  0  0
    4.9586   -1.2238    2.1418 C   0  0  0  0  0  0  0  0  0  0  0  0
    6.1276   -0.6275    2.6790 C   0  0  0  0  0  0  0  0  0  0  0  0
    6.4724    0.7248    2.3790 N   0  0  0  0  0  0  0  0  0  0  0  0
    7.7564    1.2803    2.6354 C   0  0  0  0  0  0  0  0  0  0  0  0
    8.9161    0.5968    2.2382 C   0  0  0  0  0  0  0  0  0  0  0  0
   10.1920    1.0874    2.5326 C   0  0  0  0  0  0  0  0  0  0  0  0
   10.3328    2.2887    3.2252 C   0  0  0  0  0  0  0  0  0  0  0  0
   12.0970    2.8501    3.6506 Br  0  0  0  0  0  0  0  0  0  0  0  0
    9.1896    3.0106    3.5889 C   0  0  0  0  0  0  0  0  0  0  0  0
    9.2849    4.5160    4.4365 Cl  0  0  0  0  0  0  0  0  0  0  0  0
    7.9085    2.5139    3.2833 C   0  0  0  0  0  0  0  0  0  0  0  0
    6.9502   -1.3065    3.5042 N   0  0  0  0  0  0  0  0  0  0  0  0
    6.6137   -2.5622    3.7995 C   0  0  0  0  0  0  0  0  0  0  0  0
    5.5367   -3.2142    3.3518 N   0  0  0  0  0  0  0  0  0  0  0  0
    4.7263   -2.5440    2.5290 C   0  0  0  0  0  0  0  0  0  0  0  0
    3.6087   -3.2202    2.0348 C   0  0  0  0  0  0  0  0  0  0  0  0
    2.6671   -2.6289    1.1677 C   0  0  0  0  0  0  0  0  0  0  0  0
    1.5724   -3.3422    0.7202 O   0  0  0  0  0  0  0  0  0  0  0  0
    1.0238   -4.3495    1.6091 C   0  0  2  0  0  0  0  0  0  0  0  0
    1.5645   -5.7484    1.3561 C   0  0  0  0  0  0  0  0  0  0  0  0
    0.4156   -6.5643    0.8042 C   0  0  0  0  0  0  0  0  0  0  0  0
   -0.7879   -5.8255    0.9665 O   0  0  0  0  0  0  0  0  0  0  0  0
   -0.4807   -4.4924    1.3848 C   0  0  0  0  0  0  0  0  0  0  0  0
    0.7272   -0.0929   -1.4005 H   0  0  0  0  0  0  0  0  0  0  0  0
    0.4179   -1.5637   -0.4927 H   0  0  0  0  0  0  0  0  0  0  0  0
    1.7041   -1.5108   -1.7711 H   0  0  0  0  0  0  0  0  0  0  0  0
    4.2072    0.3926    0.9096 H   0  0  0  0  0  0  0  0  0  0  0  0
    5.7210    1.3299    2.6956 H   0  0  0  0  0  0  0  0  0  0  0  0
    8.8306   -0.3499    1.7092 H   0  0  0  0  0  0  0  0  0  0  0  0
   11.0635    0.5103    2.2315 H   0  0  0  0  0  0  0  0  0  0  0  0
    7.0360    3.0870    3.5863 H   0  0  0  0  0  0  0  0  0  0  0  0
    7.2811   -3.0995    4.4651 H   0  0  0  0  0  0  0  0  0  0  0  0
    3.4970   -4.2449    2.3607 H   0  0  0  0  0  0  0  0  0  0  0  0
    1.1789   -4.0434    2.6516 H   0  0  0  0  0  0  0  0  0  0  0  0
    1.8759   -6.1993    2.3077 H   0  0  0  0  0  0  0  0  0  0  0  0
    2.4287   -5.7848    0.6864 H   0  0  0  0  0  0  0  0  0  0  0  0
    0.3117   -7.5237    1.3253 H   0  0  0  0  0  0  0  0  0  0  0  0
    0.5487   -6.7840   -0.2597 H   0  0  0  0  0  0  0  0  0  0  0  0
   -1.0256   -4.3296    2.3210 H   0  0  0  0  0  0  0  0  0  0  0  0
   -0.8705   -3.7947    0.6387 H   0  0  0  0  0  0  0  0  0  0  0  0
  1  2  1  0  0  0  0
  1 28  1  0  0  0  0
  1 29  1  0  0  0  0
  1 30  1  0  0  0  0
  2  3  1  0  0  0  0
  3  4  1  0  0  0  0
  3 21  2  0  0  0  0
  4  5  2  0  0  0  0
  4 31  1  0  0  0  0
  5  6  1  0  0  0  0
  5 19  1  0  0  0  0
  6  7  1  0  0  0  0
  6 16  2  0  0  0  0
  7  8  1  0  0  0  0
  7 32  1  0  0  0  0
  8  9  1  0  0  0  0
  8 15  2  0  0  0  0
  9 10  2  0  0  0  0
  9 33  1  0  0  0  0
 10 11  1  0  0  0  0
 10 34  1  0  0  0  0
 11 12  1  0  0  0  0
 11 13  2  0  0  0  0
 13 14  1  0  0  0  0
 13 15  1  0  0  0  0
 15 35  1  0  0  0  0
 16 17  1  0  0  0  0
 17 18  2  0  0  0  0
 17 36  1  0  0  0  0
 18 19  1  0  0  0  0
 19 20  2  0  0  0  0
 20 21  1  0  0  0  0
 20 37  1  0  0  0  0
 21 22  1  0  0  0  0
 22 23  1  0  0  0  0
 23 24  1  0  0  0  0
 23 27  1  0  0  0  0
 23 38  1  1  0  0  0
 24 25  1  0  0  0  0
 24 39  1  0  0  0  0
 24 40  1  0  0  0  0
 25 26  1  0  0  0  0
 25 41  1  0  0  0  0
 25 42  1  0  0  0  0
 26 27  1  0  0  0  0
 27 43  1  0  0  0  0
 27 44  1  0  0  0  0
M  END
$$$$
