CHEMBL1987034
 OpenBabel04072215363D

 44 46  0  0  0  0  0  0  0  0999 V2000
   12.2928    9.3729    1.9817 N   0  0  0  0  0  0  0  0  0  0  0  0
   12.2003    8.3627    1.2328 C   0  0  0  0  0  0  0  0  0  0  0  0
   12.0889    7.1449    0.3300 C   0  0  0  0  0  0  0  0  0  0  0  0
   11.0028    6.3189    0.7635 O   0  0  0  0  0  0  0  0  0  0  0  0
   10.8024    5.1671    0.0529 C   0  0  0  0  0  0  0  0  0  0  0  0
   11.7883    4.4700   -0.6394 C   0  0  0  0  0  0  0  0  0  0  0  0
   11.4710    3.2779   -1.2985 C   0  0  0  0  0  0  0  0  0  0  0  0
   10.1780    2.7390   -1.2482 C   0  0  0  0  0  0  0  0  0  0  0  0
    9.8333    1.5506   -1.9454 N   0  0  0  0  0  0  0  0  0  0  0  0
   10.7161    0.4437   -2.0717 C   0  0  0  0  0  0  0  0  0  0  0  0
   11.6251    0.2536   -1.0958 N   0  0  0  0  0  0  0  0  0  0  0  0
   12.4757   -0.7792   -1.1725 C   0  0  0  0  0  0  0  0  0  0  0  0
   13.4404   -0.9261   -0.1785 N   0  0  0  0  0  0  0  0  0  0  0  0
   13.2903   -0.6692    1.1958 C   0  0  0  0  0  0  0  0  0  0  0  0
   14.4286   -0.4087    1.9702 C   0  0  0  0  0  0  0  0  0  0  0  0
   14.3223   -0.1126    3.3338 C   0  0  0  0  0  0  0  0  0  0  0  0
   13.0713   -0.0718    3.9464 C   0  0  0  0  0  0  0  0  0  0  0  0
   11.9320   -0.3214    3.1823 C   0  0  0  0  0  0  0  0  0  0  0  0
   10.3246   -0.2506    3.9272 S   0  0  0  0  0  0  0  0  0  0  0  0
    9.5812    0.9598    3.0415 N   0  0  0  0  0  0  0  0  0  0  0  0
    9.6426   -1.4882    3.6232 O   0  0  0  0  0  0  0  0  0  0  0  0
   10.4719    0.2529    5.2722 O   0  0  0  0  0  0  0  0  0  0  0  0
   12.0370   -0.6274    1.8210 C   0  0  0  0  0  0  0  0  0  0  0  0
   12.4693   -1.6619   -2.1770 N   0  0  0  0  0  0  0  0  0  0  0  0
   11.5064   -1.5003   -3.1108 C   0  0  0  0  0  0  0  0  0  0  0  0
   10.5972   -0.4641   -3.1082 C   0  0  0  0  0  0  0  0  0  0  0  0
    9.3319   -0.2964   -4.4955 Br  0  0  0  0  0  0  0  0  0  0  0  0
    9.1854    3.4650   -0.5865 C   0  0  0  0  0  0  0  0  0  0  0  0
    9.5022    4.6557    0.0817 C   0  0  0  0  0  0  0  0  0  0  0  0
   13.0443    6.6141    0.3988 H   0  0  0  0  0  0  0  0  0  0  0  0
   11.9139    7.4782   -0.6993 H   0  0  0  0  0  0  0  0  0  0  0  0
   12.8218    4.7956   -0.6701 H   0  0  0  0  0  0  0  0  0  0  0  0
   12.2628    2.7575   -1.8328 H   0  0  0  0  0  0  0  0  0  0  0  0
    9.4712    1.8040   -2.8634 H   0  0  0  0  0  0  0  0  0  0  0  0
   14.0786   -1.6749   -0.4085 H   0  0  0  0  0  0  0  0  0  0  0  0
   15.4119   -0.4040    1.5050 H   0  0  0  0  0  0  0  0  0  0  0  0
   15.2174    0.0975    3.9143 H   0  0  0  0  0  0  0  0  0  0  0  0
   12.9944    0.1541    5.0077 H   0  0  0  0  0  0  0  0  0  0  0  0
    9.2524    0.6694    2.1232 H   0  0  0  0  0  0  0  0  0  0  0  0
   10.0199    1.8747    3.1143 H   0  0  0  0  0  0  0  0  0  0  0  0
   11.1350   -0.8495    1.2554 H   0  0  0  0  0  0  0  0  0  0  0  0
   11.4983   -2.2607   -3.8873 H   0  0  0  0  0  0  0  0  0  0  0  0
    8.1653    3.0904   -0.5544 H   0  0  0  0  0  0  0  0  0  0  0  0
    8.7244    5.1871    0.6259 H   0  0  0  0  0  0  0  0  0  0  0  0
  1  2  3  0  0  0  0
  2  3  1  0  0  0  0
  3  4  1  0  0  0  0
  3 30  1  0  0  0  0
  3 31  1  0  0  0  0
  4  5  1  0  0  0  0
  5  6  1  0  0  0  0
  5 29  2  0  0  0  0
  6  7  2  0  0  0  0
  6 32  1  0  0  0  0
  7  8  1  0  0  0  0
  7 33  1  0  0  0  0
  8  9  1  0  0  0  0
  8 28  2  0  0  0  0
  9 10  1  0  0  0  0
  9 34  1  0  0  0  0
 10 11  1  0  0  0  0
 10 26  2  0  0  0  0
 11 12  2  0  0  0  0
 12 13  1  0  0  0  0
 12 24  1  0  0  0  0
 13 14  1  0  0  0  0
 13 35  1  0  0  0  0
 14 15  1  0  0  0  0
 14 23  2  0  0  0  0
 15 16  2  0  0  0  0
 15 36  1  0  0  0  0
 16 17  1  0  0  0  0
 16 37  1  0  0  0  0
 17 18  2  0  0  0  0
 17 38  1  0  0  0  0
 18 19  1  0  0  0  0
 18 23  1  0  0  0  0
 19 20  1  0  0  0  0
 19 21  2  0  0  0  0
 19 22  2  0  0  0  0
 20 39  1  0  0  0  0
 20 40  1  0  0  0  0
 23 41  1  0  0  0  0
 24 25  2  0  0  0  0
 25 26  1  0  0  0  0
 25 42  1  0  0  0  0
 26 27  1  0  0  0  0
 28 29  1  0  0  0  0
 28 43  1  0  0  0  0
 29 44  1  0  0  0  0
M  END
$$$$
