CHEMBL1682346
 OpenBabel04072215363D

 36 39  0  0  0  0  0  0  0  0999 V2000
    2.1187    1.1313   -1.4613 N   0  0  0  0  0  0  0  0  0  0  0  0
    1.3698    0.1690   -0.9006 C   0  0  0  0  0  0  0  0  0  0  0  0
    1.8079   -1.0693   -0.6973 N   0  0  0  0  0  0  0  0  0  0  0  0
    0.7528   -1.6929   -0.1443 N   0  0  0  0  0  0  0  0  0  0  0  0
   -0.3474   -0.8967    0.0289 C   0  0  0  0  0  0  0  0  0  0  0  0
   -1.6154   -1.1546    0.5561 C   0  0  0  0  0  0  0  0  0  0  0  0
   -2.5252   -0.0870    0.5735 C   0  0  0  0  0  0  0  0  0  0  0  0
   -2.1850    1.1809    0.0791 C   0  0  0  0  0  0  0  0  0  0  0  0
   -3.1730    2.2405    0.0655 C   0  0  0  0  0  0  0  0  0  0  0  0
   -3.2222    3.2929   -0.8223 C   0  0  0  0  0  0  0  0  0  0  0  0
   -4.3535    3.9657   -0.4697 N   0  0  0  0  0  0  0  0  0  0  0  0
   -4.9548    5.1038   -1.1443 C   0  0  0  0  0  0  0  0  0  0  0  0
   -4.4110    6.4159   -0.6358 C   0  0  0  0  0  0  0  0  0  0  0  0
   -3.7658    7.3070   -1.5069 C   0  0  0  0  0  0  0  0  0  0  0  0
   -3.2567    8.5179   -1.0326 C   0  0  0  0  0  0  0  0  0  0  0  0
   -3.3944    8.8555    0.3123 C   0  0  0  0  0  0  0  0  0  0  0  0
   -4.0522    7.9898    1.1825 C   0  0  0  0  0  0  0  0  0  0  0  0
   -4.5626    6.7799    0.7115 C   0  0  0  0  0  0  0  0  0  0  0  0
   -4.9732    3.3730    0.5688 N   0  0  0  0  0  0  0  0  0  0  0  0
   -4.2524    2.3104    0.9069 N   0  0  0  0  0  0  0  0  0  0  0  0
   -0.8926    1.4050   -0.4289 C   0  0  0  0  0  0  0  0  0  0  0  0
    0.0335    0.3474   -0.4597 C   0  0  0  0  0  0  0  0  0  0  0  0
    3.1115    0.9440   -1.5387 H   0  0  0  0  0  0  0  0  0  0  0  0
    1.8884    2.1067   -1.3381 H   0  0  0  0  0  0  0  0  0  0  0  0
    0.8486   -2.6718    0.1000 H   0  0  0  0  0  0  0  0  0  0  0  0
   -1.8971   -2.1348    0.9260 H   0  0  0  0  0  0  0  0  0  0  0  0
   -3.5265   -0.2628    0.9665 H   0  0  0  0  0  0  0  0  0  0  0  0
   -2.6001    3.5901   -1.6531 H   0  0  0  0  0  0  0  0  0  0  0  0
   -6.0397    5.0549   -1.0077 H   0  0  0  0  0  0  0  0  0  0  0  0
   -4.7498    4.9792   -2.2145 H   0  0  0  0  0  0  0  0  0  0  0  0
   -3.6511    7.0688   -2.5623 H   0  0  0  0  0  0  0  0  0  0  0  0
   -2.7508    9.1995   -1.7120 H   0  0  0  0  0  0  0  0  0  0  0  0
   -2.9906    9.7941    0.6830 H   0  0  0  0  0  0  0  0  0  0  0  0
   -4.1659    8.2531    2.2312 H   0  0  0  0  0  0  0  0  0  0  0  0
   -5.0729    6.1166    1.4090 H   0  0  0  0  0  0  0  0  0  0  0  0
   -0.5968    2.3807   -0.8012 H   0  0  0  0  0  0  0  0  0  0  0  0
  1  2  1  0  0  0  0
  1 23  1  0  0  0  0
  1 24  1  0  0  0  0
  2  3  2  0  0  0  0
  2 22  1  0  0  0  0
  3  4  1  0  0  0  0
  4  5  1  0  0  0  0
  4 25  1  0  0  0  0
  5  6  1  0  0  0  0
  5 22  2  0  0  0  0
  6  7  2  0  0  0  0
  6 26  1  0  0  0  0
  7  8  1  0  0  0  0
  7 27  1  0  0  0  0
  8  9  1  0  0  0  0
  8 21  2  0  0  0  0
  9 10  2  0  0  0  0
  9 20  1  0  0  0  0
 10 11  1  0  0  0  0
 10 28  1  0  0  0  0
 11 12  1  0  0  0  0
 11 19  1  0  0  0  0
 12 13  1  0  0  0  0
 12 29  1  0  0  0  0
 12 30  1  0  0  0  0
 13 14  1  0  0  0  0
 13 18  2  0  0  0  0
 14 15  2  0  0  0  0
 14 31  1  0  0  0  0
 15 16  1  0  0  0  0
 15 32  1  0  0  0  0
 16 17  2  0  0  0  0
 16 33  1  0  0  0  0
 17 18  1  0  0  0  0
 17 34  1  0  0  0  0
 18 35  1  0  0  0  0
 19 20  2  0  0  0  0
 21 22  1  0  0  0  0
 21 36  1  0  0  0  0
M  END
$$$$
