CHEMBL196668
 OpenBabel04072215363D

 54 57  0  0  0  0  0  0  0  0999 V2000
    2.4166    1.3002   -2.1699 C   0  0  0  0  0  0  0  0  0  0  0  0
    2.2582    0.1307   -1.1699 C   0  0  0  0  0  0  0  0  0  0  0  0
    3.3294    0.3256   -0.0765 C   0  0  0  0  0  0  0  0  0  0  0  0
    0.8577    0.2554   -0.5360 C   0  0  0  0  0  0  0  0  0  0  0  0
    2.4021   -1.2584   -1.8181 C   0  0  0  0  0  0  0  0  0  0  0  0
    2.5725   -1.4108   -3.2043 C   0  0  0  0  0  0  0  0  0  0  0  0
    2.6566   -2.6728   -3.7869 C   0  0  0  0  0  0  0  0  0  0  0  0
    2.5995   -3.8087   -2.9915 C   0  0  0  0  0  0  0  0  0  0  0  0
    2.4982   -3.7143   -1.5980 C   0  0  0  0  0  0  0  0  0  0  0  0
    2.4356   -4.8778   -0.7919 N   0  0  0  0  0  0  0  0  0  0  0  0
    3.0680   -6.1117   -1.1069 C   0  0  0  0  0  0  0  0  0  0  0  0
    4.1492   -6.0990   -1.9132 N   0  0  0  0  0  0  0  0  0  0  0  0
    4.7195   -7.2545   -2.3558 N   0  0  0  0  0  0  0  0  0  0  0  0
    4.2171   -8.4537   -1.9927 C   0  0  0  0  0  0  0  0  0  0  0  0
    4.8836   -9.5845   -2.6869 C   0  0  0  0  0  0  0  0  0  0  0  0
    6.2735   -9.5614   -2.9216 C   0  0  0  0  0  0  0  0  0  0  0  0
    6.9179  -10.5910   -3.6201 C   0  0  0  0  0  0  0  0  0  0  0  0
    6.1874  -11.6897   -4.0801 C   0  0  0  0  0  0  0  0  0  0  0  0
    6.8967  -12.7568   -4.8305 C   0  0  0  0  0  0  0  0  0  0  0  0
    6.3504  -14.0099   -4.8053 N   0  0  0  0  0  0  0  0  0  0  0  0
    7.9438  -12.5383   -5.4273 O   0  0  0  0  0  0  0  0  0  0  0  0
    4.8069  -11.7275   -3.8771 C   0  0  0  0  0  0  0  0  0  0  0  0
    4.1659  -10.6719   -3.2171 C   0  0  0  0  0  0  0  0  0  0  0  0
    3.1389   -8.5423   -1.0804 C   0  0  0  0  0  0  0  0  0  0  0  0
    2.5937   -9.7633   -0.6005 C   0  0  0  0  0  0  0  0  0  0  0  0
    1.4860   -9.8041    0.2449 C   0  0  0  0  0  0  0  0  0  0  0  0
    0.9141   -8.6205    0.6855 C   0  0  0  0  0  0  0  0  0  0  0  0
    1.4477   -7.4021    0.2646 C   0  0  0  0  0  0  0  0  0  0  0  0
    2.5529   -7.3306   -0.6224 C   0  0  0  0  0  0  0  0  0  0  0  0
    2.3553   -2.4369   -1.0331 C   0  0  0  0  0  0  0  0  0  0  0  0
    2.3339    2.2693   -1.6654 H   0  0  0  0  0  0  0  0  0  0  0  0
    1.6415    1.2762   -2.9451 H   0  0  0  0  0  0  0  0  0  0  0  0
    3.3949    1.2760   -2.6649 H   0  0  0  0  0  0  0  0  0  0  0  0
    3.2695    1.3302    0.3595 H   0  0  0  0  0  0  0  0  0  0  0  0
    4.3390    0.2002   -0.4850 H   0  0  0  0  0  0  0  0  0  0  0  0
    3.2159   -0.3861    0.7488 H   0  0  0  0  0  0  0  0  0  0  0  0
    0.7204    1.2412   -0.0747 H   0  0  0  0  0  0  0  0  0  0  0  0
    0.6887   -0.4930    0.2457 H   0  0  0  0  0  0  0  0  0  0  0  0
    0.0702    0.1287   -1.2887 H   0  0  0  0  0  0  0  0  0  0  0  0
    2.6349   -0.5572   -3.8717 H   0  0  0  0  0  0  0  0  0  0  0  0
    2.7689   -2.7721   -4.8646 H   0  0  0  0  0  0  0  0  0  0  0  0
    2.6444   -4.7808   -3.4801 H   0  0  0  0  0  0  0  0  0  0  0  0
    2.5053   -4.6905    0.1999 H   0  0  0  0  0  0  0  0  0  0  0  0
    6.8692   -8.7134   -2.5836 H   0  0  0  0  0  0  0  0  0  0  0  0
    7.9877  -10.5253   -3.8095 H   0  0  0  0  0  0  0  0  0  0  0  0
    5.6405  -14.2843   -4.1427 H   0  0  0  0  0  0  0  0  0  0  0  0
    6.8887  -14.7413   -5.2518 H   0  0  0  0  0  0  0  0  0  0  0  0
    4.2050  -12.5427   -4.2676 H   0  0  0  0  0  0  0  0  0  0  0  0
    3.0794  -10.6994   -3.1530 H   0  0  0  0  0  0  0  0  0  0  0  0
    3.0287  -10.7186   -0.8828 H   0  0  0  0  0  0  0  0  0  0  0  0
    1.0740  -10.7611    0.5557 H   0  0  0  0  0  0  0  0  0  0  0  0
    0.0578   -8.6443    1.3502 H   0  0  0  0  0  0  0  0  0  0  0  0
    0.9748   -6.4911    0.6277 H   0  0  0  0  0  0  0  0  0  0  0  0
    2.2137   -2.3538    0.0418 H   0  0  0  0  0  0  0  0  0  0  0  0
  1  2  1  0  0  0  0
  1 31  1  0  0  0  0
  1 32  1  0  0  0  0
  1 33  1  0  0  0  0
  2  3  1  0  0  0  0
  2  4  1  0  0  0  0
  2  5  1  0  0  0  0
  3 34  1  0  0  0  0
  3 35  1  0  0  0  0
  3 36  1  0  0  0  0
  4 37  1  0  0  0  0
  4 38  1  0  0  0  0
  4 39  1  0  0  0  0
  5  6  1  0  0  0  0
  5 30  2  0  0  0  0
  6  7  2  0  0  0  0
  6 40  1  0  0  0  0
  7  8  1  0  0  0  0
  7 41  1  0  0  0  0
  8  9  2  0  0  0  0
  8 42  1  0  0  0  0
  9 10  1  0  0  0  0
  9 30  1  0  0  0  0
 10 11  1  0  0  0  0
 10 43  1  0  0  0  0
 11 12  1  0  0  0  0
 11 29  2  0  0  0  0
 12 13  2  0  0  0  0
 13 14  1  0  0  0  0
 14 15  1  0  0  0  0
 14 24  2  0  0  0  0
 15 16  1  0  0  0  0
 15 23  2  0  0  0  0
 16 17  2  0  0  0  0
 16 44  1  0  0  0  0
 17 18  1  0  0  0  0
 17 45  1  0  0  0  0
 18 19  1  0  0  0  0
 18 22  2  0  0  0  0
 19 20  1  0  0  0  0
 19 21  2  0  0  0  0
 20 46  1  0  0  0  0
 20 47  1  0  0  0  0
 22 23  1  0  0  0  0
 22 48  1  0  0  0  0
 23 49  1  0  0  0  0
 24 25  1  0  0  0  0
 24 29  1  0  0  0  0
 25 26  2  0  0  0  0
 25 50  1  0  0  0  0
 26 27  1  0  0  0  0
 26 51  1  0  0  0  0
 27 28  2  0  0  0  0
 27 52  1  0  0  0  0
 28 29  1  0  0  0  0
 28 53  1  0  0  0  0
 30 54  1  0  0  0  0
M  END
$$$$
