CHEMBL69649
 OpenBabel04072215383D

 53 56  0  0  0  0  0  0  0  0999 V2000
    5.9030   -2.6444   -2.9686 C   0  0  0  0  0  0  0  0  0  0  0  0
    6.4238   -1.7814   -1.9661 O   0  0  0  0  0  0  0  0  0  0  0  0
    6.1208   -2.0890   -0.6690 C   0  0  0  0  0  0  0  0  0  0  0  0
    5.3044   -3.1368   -0.2418 C   0  0  0  0  0  0  0  0  0  0  0  0
    5.0790   -3.3418    1.1254 C   0  0  0  0  0  0  0  0  0  0  0  0
    5.7177   -2.5376    2.0722 C   0  0  0  0  0  0  0  0  0  0  0  0
    5.5939   -2.6639    3.4353 O   0  0  0  0  0  0  0  0  0  0  0  0
    5.4615   -3.8987    4.0226 C   0  0  0  0  0  0  0  0  0  0  0  0
    5.9216   -5.1011    3.4903 C   0  0  0  0  0  0  0  0  0  0  0  0
    5.6134   -6.3085    4.1243 C   0  0  0  0  0  0  0  0  0  0  0  0
    4.9174   -6.3264    5.3420 C   0  0  0  0  0  0  0  0  0  0  0  0
    4.4455   -7.5857    5.9141 C   0  0  0  0  0  0  0  0  0  0  0  0
    5.1444   -8.7718    5.7617 C   0  0  0  0  0  0  0  0  0  0  0  0
    4.4329   -9.8049    6.3328 N   0  0  0  0  0  0  0  0  0  0  0  0
    4.8587  -11.2232    6.3781 C   0  0  0  0  0  0  0  0  0  0  0  0
    6.2108  -11.4578    5.6550 C   0  0  0  0  0  0  0  0  0  0  0  0
    5.0463  -11.6751    7.8404 C   0  0  0  0  0  0  0  0  0  0  0  0
    3.8258  -12.1322    5.6794 C   0  0  0  0  0  0  0  0  0  0  0  0
    3.2776   -9.2821    6.8758 C   0  0  0  0  0  0  0  0  0  0  0  0
    2.3385   -9.9931    7.5210 N   0  0  0  0  0  0  0  0  0  0  0  0
    1.3193   -9.2316    7.9383 C   0  0  0  0  0  0  0  0  0  0  0  0
    1.1527   -7.9115    7.7691 N   0  0  0  0  0  0  0  0  0  0  0  0
    2.1014   -7.2283    7.1042 C   0  0  0  0  0  0  0  0  0  0  0  0
    1.8424   -5.8724    6.9372 N   0  0  0  0  0  0  0  0  0  0  0  0
    3.2459   -7.9082    6.6335 C   0  0  0  0  0  0  0  0  0  0  0  0
    4.6373   -5.1030    5.9558 C   0  0  0  0  0  0  0  0  0  0  0  0
    4.8645   -3.8998    5.2824 C   0  0  0  0  0  0  0  0  0  0  0  0
    6.4963   -1.4639    1.6435 C   0  0  0  0  0  0  0  0  0  0  0  0
    6.6965   -1.2423    0.2804 C   0  0  0  0  0  0  0  0  0  0  0  0
    6.2599   -2.2839   -3.9381 H   0  0  0  0  0  0  0  0  0  0  0  0
    4.8087   -2.6135   -2.9831 H   0  0  0  0  0  0  0  0  0  0  0  0
    6.2688   -3.6685   -2.8391 H   0  0  0  0  0  0  0  0  0  0  0  0
    4.8245   -3.8108   -0.9437 H   0  0  0  0  0  0  0  0  0  0  0  0
    4.4110   -4.1429    1.4296 H   0  0  0  0  0  0  0  0  0  0  0  0
    6.4860   -5.1285    2.5632 H   0  0  0  0  0  0  0  0  0  0  0  0
    5.9035   -7.2335    3.6322 H   0  0  0  0  0  0  0  0  0  0  0  0
    6.0977   -8.9441    5.2783 H   0  0  0  0  0  0  0  0  0  0  0  0
    7.0214  -10.8822    6.1175 H   0  0  0  0  0  0  0  0  0  0  0  0
    6.1548  -11.1754    4.5961 H   0  0  0  0  0  0  0  0  0  0  0  0
    6.5041  -12.5134    5.6918 H   0  0  0  0  0  0  0  0  0  0  0  0
    5.7838  -11.0465    8.3537 H   0  0  0  0  0  0  0  0  0  0  0  0
    5.3974  -12.7119    7.8892 H   0  0  0  0  0  0  0  0  0  0  0  0
    4.1162  -11.6253    8.4129 H   0  0  0  0  0  0  0  0  0  0  0  0
    3.6737  -11.8311    4.6363 H   0  0  0  0  0  0  0  0  0  0  0  0
    2.8508  -12.1179    6.1742 H   0  0  0  0  0  0  0  0  0  0  0  0
    4.1637  -13.1761    5.6767 H   0  0  0  0  0  0  0  0  0  0  0  0
    0.5265   -9.7433    8.4718 H   0  0  0  0  0  0  0  0  0  0  0  0
    0.8795   -5.6758    7.1852 H   0  0  0  0  0  0  0  0  0  0  0  0
    2.1349   -5.5187    6.0355 H   0  0  0  0  0  0  0  0  0  0  0  0
    4.2041   -5.0658    6.9526 H   0  0  0  0  0  0  0  0  0  0  0  0
    4.5590   -2.9625    5.7410 H   0  0  0  0  0  0  0  0  0  0  0  0
    6.9517   -0.7994    2.3727 H   0  0  0  0  0  0  0  0  0  0  0  0
    7.3107   -0.4058   -0.0428 H   0  0  0  0  0  0  0  0  0  0  0  0
  1  2  1  0  0  0  0
  1 30  1  0  0  0  0
  1 31  1  0  0  0  0
  1 32  1  0  0  0  0
  2  3  1  0  0  0  0
  3  4  1  0  0  0  0
  3 29  2  0  0  0  0
  4  5  2  0  0  0  0
  4 33  1  0  0  0  0
  5  6  1  0  0  0  0
  5 34  1  0  0  0  0
  6  7  1  0  0  0  0
  6 28  2  0  0  0  0
  7  8  1  0  0  0  0
  8  9  1  0  0  0  0
  8 27  2  0  0  0  0
  9 10  2  0  0  0  0
  9 35  1  0  0  0  0
 10 11  1  0  0  0  0
 10 36  1  0  0  0  0
 11 12  1  0  0  0  0
 11 26  2  0  0  0  0
 12 13  2  0  0  0  0
 12 25  1  0  0  0  0
 13 14  1  0  0  0  0
 13 37  1  0  0  0  0
 14 15  1  0  0  0  0
 14 19  1  0  0  0  0
 15 16  1  0  0  0  0
 15 17  1  0  0  0  0
 15 18  1  0  0  0  0
 16 38  1  0  0  0  0
 16 39  1  0  0  0  0
 16 40  1  0  0  0  0
 17 41  1  0  0  0  0
 17 42  1  0  0  0  0
 17 43  1  0  0  0  0
 18 44  1  0  0  0  0
 18 45  1  0  0  0  0
 18 46  1  0  0  0  0
 19 20  1  0  0  0  0
 19 25  2  0  0  0  0
 20 21  2  0  0  0  0
 21 22  1  0  0  0  0
 21 47  1  0  0  0  0
 22 23  2  0  0  0  0
 23 24  1  0  0  0  0
 23 25  1  0  0  0  0
 24 48  1  0  0  0  0
 24 49  1  0  0  0  0
 26 27  1  0  0  0  0
 26 50  1  0  0  0  0
 27 51  1  0  0  0  0
 28 29  1  0  0  0  0
 28 52  1  0  0  0  0
 29 53  1  0  0  0  0
M  END
$$$$
