CHEMBL3927422
 OpenBabel04072215373D

 53 55  0  0  0  0  0  0  0  0999 V2000
   11.0446   -3.4694   -5.9357 C   0  0  0  0  0  0  0  0  0  0  0  0
   10.4550   -2.9697   -4.7377 O   0  0  0  0  0  0  0  0  0  0  0  0
    9.1676   -2.5214   -4.8396 C   0  0  0  0  0  0  0  0  0  0  0  0
    8.4038   -2.5095   -6.0003 C   0  0  0  0  0  0  0  0  0  0  0  0
    7.0935   -2.0201   -5.9788 C   0  0  0  0  0  0  0  0  0  0  0  0
    6.5029   -1.5287   -4.8033 C   0  0  0  0  0  0  0  0  0  0  0  0
    5.1089   -0.9735   -4.8640 C   0  0  0  0  0  0  0  0  0  0  0  0
    4.3264   -0.9942   -3.7599 C   0  0  0  0  0  0  0  0  0  0  0  0
    2.9309   -0.5010   -3.6606 C   0  0  0  0  0  0  0  0  0  0  0  0
    2.5862   -0.0638   -2.4185 N   0  0  0  0  0  0  0  0  0  0  0  0
    2.1209   -0.4972   -4.5744 O   0  0  0  0  0  0  0  0  0  0  0  0
    4.5938   -0.3350   -6.1030 C   0  0  0  0  0  0  0  0  0  0  0  0
    4.7592    1.0359   -6.2633 C   0  0  0  0  0  0  0  0  0  0  0  0
    4.3215    1.6685   -7.4312 C   0  0  0  0  0  0  0  0  0  0  0  0
    3.7202    0.9474   -8.4689 C   0  0  0  0  0  0  0  0  0  0  0  0
    3.2312    1.5600   -9.6503 N   0  0  0  0  0  0  0  0  0  0  0  0
    3.3226    2.9017   -9.9553 C   0  0  0  0  0  0  0  0  0  0  0  0
    3.9145    3.7448   -9.2823 O   0  0  0  0  0  0  0  0  0  0  0  0
    2.6450    3.2443  -11.1157 N   0  0  0  0  0  0  0  0  0  0  0  0
    2.6430    4.6104  -11.5093 C   0  0  0  0  0  0  0  0  0  0  0  0
    3.8387    5.3350  -11.6212 C   0  0  0  0  0  0  0  0  0  0  0  0
    3.8227    6.7108  -11.8993 C   0  0  0  0  0  0  0  0  0  0  0  0
    5.1126    7.4901  -12.0168 C   0  0  0  0  0  0  0  0  0  0  0  0
    6.2313    6.7330  -11.8554 F   0  0  0  0  0  0  0  0  0  0  0  0
    5.2401    8.0822  -13.2385 F   0  0  0  0  0  0  0  0  0  0  0  0
    5.2024    8.4974  -11.1058 F   0  0  0  0  0  0  0  0  0  0  0  0
    2.5842    7.3555  -12.0568 C   0  0  0  0  0  0  0  0  0  0  0  0
    1.3910    6.6322  -11.9665 C   0  0  0  0  0  0  0  0  0  0  0  0
    1.4293    5.2634  -11.7170 C   0  0  0  0  0  0  0  0  0  0  0  0
    0.2782    4.5844  -11.5949 F   0  0  0  0  0  0  0  0  0  0  0  0
    3.5761   -0.4375   -8.3176 C   0  0  0  0  0  0  0  0  0  0  0  0
    3.9991   -1.0698   -7.1415 C   0  0  0  0  0  0  0  0  0  0  0  0
    7.2911   -1.5336   -3.6404 C   0  0  0  0  0  0  0  0  0  0  0  0
    8.6041   -2.0296   -3.6605 C   0  0  0  0  0  0  0  0  0  0  0  0
   12.0647   -3.7903   -5.7029 H   0  0  0  0  0  0  0  0  0  0  0  0
   11.1064   -2.6907   -6.7003 H   0  0  0  0  0  0  0  0  0  0  0  0
   10.4985   -4.3448   -6.3063 H   0  0  0  0  0  0  0  0  0  0  0  0
    8.7904   -2.8652   -6.9478 H   0  0  0  0  0  0  0  0  0  0  0  0
    6.5480   -2.0247   -6.9174 H   0  0  0  0  0  0  0  0  0  0  0  0
    4.6895   -1.4343   -2.8318 H   0  0  0  0  0  0  0  0  0  0  0  0
    3.2243    0.0003   -1.6410 H   0  0  0  0  0  0  0  0  0  0  0  0
    1.6505    0.3054   -2.3092 H   0  0  0  0  0  0  0  0  0  0  0  0
    5.2284    1.6394   -5.4888 H   0  0  0  0  0  0  0  0  0  0  0  0
    4.4746    2.7375   -7.4775 H   0  0  0  0  0  0  0  0  0  0  0  0
    2.8287    0.9580  -10.3507 H   0  0  0  0  0  0  0  0  0  0  0  0
    1.7558    2.7743  -11.2152 H   0  0  0  0  0  0  0  0  0  0  0  0
    4.7909    4.8288  -11.4634 H   0  0  0  0  0  0  0  0  0  0  0  0
    2.5482    8.4285  -12.2427 H   0  0  0  0  0  0  0  0  0  0  0  0
    0.4326    7.1328  -12.0655 H   0  0  0  0  0  0  0  0  0  0  0  0
    3.1261   -1.0373   -9.0958 H   0  0  0  0  0  0  0  0  0  0  0  0
    3.8705   -2.1482   -7.0314 H   0  0  0  0  0  0  0  0  0  0  0  0
    6.9172   -1.1307   -2.7033 H   0  0  0  0  0  0  0  0  0  0  0  0
    9.1955   -2.0201   -2.7481 H   0  0  0  0  0  0  0  0  0  0  0  0
  1  2  1  0  0  0  0
  1 35  1  0  0  0  0
  1 36  1  0  0  0  0
  1 37  1  0  0  0  0
  2  3  1  0  0  0  0
  3  4  1  0  0  0  0
  3 34  2  0  0  0  0
  4  5  2  0  0  0  0
  4 38  1  0  0  0  0
  5  6  1  0  0  0  0
  5 39  1  0  0  0  0
  6  7  1  0  0  0  0
  6 33  2  0  0  0  0
  7  8  2  0  0  0  0
  7 12  1  0  0  0  0
  8  9  1  0  0  0  0
  8 40  1  0  0  0  0
  9 10  1  0  0  0  0
  9 11  2  0  0  0  0
 10 41  1  0  0  0  0
 10 42  1  0  0  0  0
 12 13  1  0  0  0  0
 12 32  2  0  0  0  0
 13 14  2  0  0  0  0
 13 43  1  0  0  0  0
 14 15  1  0  0  0  0
 14 44  1  0  0  0  0
 15 16  1  0  0  0  0
 15 31  2  0  0  0  0
 16 17  1  0  0  0  0
 16 45  1  0  0  0  0
 17 18  2  0  0  0  0
 17 19  1  0  0  0  0
 19 20  1  0  0  0  0
 19 46  1  0  0  0  0
 20 21  1  0  0  0  0
 20 29  2  0  0  0  0
 21 22  2  0  0  0  0
 21 47  1  0  0  0  0
 22 23  1  0  0  0  0
 22 27  1  0  0  0  0
 23 24  1  0  0  0  0
 23 25  1  0  0  0  0
 23 26  1  0  0  0  0
 27 28  2  0  0  0  0
 27 48  1  0  0  0  0
 28 29  1  0  0  0  0
 28 49  1  0  0  0  0
 29 30  1  0  0  0  0
 31 32  1  0  0  0  0
 31 50  1  0  0  0  0
 32 51  1  0  0  0  0
 33 34  1  0  0  0  0
 33 52  1  0  0  0  0
 34 53  1  0  0  0  0
M  END
$$$$
