CHEMBL188284
 OpenBabel04072215363D

 40 42  0  0  0  0  0  0  0  0999 V2000
    6.4262   -0.0260    1.9034 O   0  0  0  0  0  0  0  0  0  0  0  0
    5.6918   -0.6872    0.8732 C   0  0  0  0  0  0  0  0  0  0  0  0
    5.9314    0.0027   -0.4717 C   0  0  0  0  0  0  0  0  0  0  0  0
    5.4100    1.3745   -0.4533 N   0  0  0  0  0  0  0  0  0  0  0  0
    5.6008    2.1778   -1.5858 C   0  0  0  0  0  0  0  0  0  0  0  0
    6.0619    1.7176   -2.8198 C   0  0  0  0  0  0  0  0  0  0  0  0
    6.1702    2.4639   -3.9414 N   0  0  0  0  0  0  0  0  0  0  0  0
    5.7633    3.7515   -3.8480 C   0  0  0  0  0  0  0  0  0  0  0  0
    5.2652    4.3490   -2.6892 C   0  0  0  0  0  0  0  0  0  0  0  0
    4.8336    5.7550   -2.6931 C   0  0  0  0  0  0  0  0  0  0  0  0
    4.8597    6.5758   -1.5693 C   0  0  0  0  0  0  0  0  0  0  0  0
    4.4223    7.8575   -1.5744 N   0  0  0  0  0  0  0  0  0  0  0  0
    3.9518    8.2930   -2.7679 C   0  0  0  0  0  0  0  0  0  0  0  0
    3.9566    7.5264   -3.9335 C   0  0  0  0  0  0  0  0  0  0  0  0
    3.4098    8.0467   -5.1305 N   0  0  0  0  0  0  0  0  0  0  0  0
    3.7964    7.6587   -6.4386 C   0  0  0  0  0  0  0  0  0  0  0  0
    5.0989    7.2350   -6.7391 C   0  0  0  0  0  0  0  0  0  0  0  0
    5.4761    6.9446   -8.0522 C   0  0  0  0  0  0  0  0  0  0  0  0
    4.5551    7.0884   -9.0866 C   0  0  0  0  0  0  0  0  0  0  0  0
    3.2655    7.5317   -8.8016 C   0  0  0  0  0  0  0  0  0  0  0  0
    2.1301    7.7221  -10.0818 Cl  0  0  0  0  0  0  0  0  0  0  0  0
    2.8887    7.8307   -7.4910 C   0  0  0  0  0  0  0  0  0  0  0  0
    4.3984    6.2463   -3.8851 N   0  0  0  0  0  0  0  0  0  0  0  0
    5.1822    3.5170   -1.5541 C   0  0  0  0  0  0  0  0  0  0  0  0
    6.2938   -0.5444    2.7166 H   0  0  0  0  0  0  0  0  0  0  0  0
    4.6304   -0.6783    1.1414 H   0  0  0  0  0  0  0  0  0  0  0  0
    6.0375   -1.7248    0.8187 H   0  0  0  0  0  0  0  0  0  0  0  0
    5.4225   -0.5748   -1.2518 H   0  0  0  0  0  0  0  0  0  0  0  0
    7.0082    0.0230   -0.6748 H   0  0  0  0  0  0  0  0  0  0  0  0
    5.6587    1.8547    0.4112 H   0  0  0  0  0  0  0  0  0  0  0  0
    6.3758    0.6890   -2.9611 H   0  0  0  0  0  0  0  0  0  0  0  0
    5.8453    4.3121   -4.7767 H   0  0  0  0  0  0  0  0  0  0  0  0
    5.2461    6.2305   -0.6165 H   0  0  0  0  0  0  0  0  0  0  0  0
    3.5785    9.3112   -2.7641 H   0  0  0  0  0  0  0  0  0  0  0  0
    3.3673    9.0613   -5.0974 H   0  0  0  0  0  0  0  0  0  0  0  0
    5.8396    7.1294   -5.9500 H   0  0  0  0  0  0  0  0  0  0  0  0
    6.4883    6.6087   -8.2625 H   0  0  0  0  0  0  0  0  0  0  0  0
    4.8485    6.8572  -10.1068 H   0  0  0  0  0  0  0  0  0  0  0  0
    1.8794    8.1765   -7.2846 H   0  0  0  0  0  0  0  0  0  0  0  0
    4.7433    3.8952   -0.6339 H   0  0  0  0  0  0  0  0  0  0  0  0
  1  2  1  0  0  0  0
  1 25  1  0  0  0  0
  2  3  1  0  0  0  0
  2 26  1  0  0  0  0
  2 27  1  0  0  0  0
  3  4  1  0  0  0  0
  3 28  1  0  0  0  0
  3 29  1  0  0  0  0
  4  5  1  0  0  0  0
  4 30  1  0  0  0  0
  5  6  1  0  0  0  0
  5 24  2  0  0  0  0
  6  7  2  0  0  0  0
  6 31  1  0  0  0  0
  7  8  1  0  0  0  0
  8  9  2  0  0  0  0
  8 32  1  0  0  0  0
  9 10  1  0  0  0  0
  9 24  1  0  0  0  0
 10 11  1  0  0  0  0
 10 23  2  0  0  0  0
 11 12  2  0  0  0  0
 11 33  1  0  0  0  0
 12 13  1  0  0  0  0
 13 14  2  0  0  0  0
 13 34  1  0  0  0  0
 14 15  1  0  0  0  0
 14 23  1  0  0  0  0
 15 16  1  0  0  0  0
 15 35  1  0  0  0  0
 16 17  1  0  0  0  0
 16 22  2  0  0  0  0
 17 18  2  0  0  0  0
 17 36  1  0  0  0  0
 18 19  1  0  0  0  0
 18 37  1  0  0  0  0
 19 20  2  0  0  0  0
 19 38  1  0  0  0  0
 20 21  1  0  0  0  0
 20 22  1  0  0  0  0
 22 39  1  0  0  0  0
 24 40  1  0  0  0  0
M  END
$$$$
