CHEMBL3800021
 OpenBabel04072215373D

 39 42  0  0  0  0  0  0  0  0999 V2000
    3.4563    1.2798   -0.1354 C   0  0  0  0  0  0  0  0  0  0  0  0
    2.5359    0.1875   -0.2125 O   0  0  0  0  0  0  0  0  0  0  0  0
    3.0558   -1.0469    0.0784 C   0  0  0  0  0  0  0  0  0  0  0  0
    4.1210   -1.1953    0.9849 C   0  0  0  0  0  0  0  0  0  0  0  0
    4.7524   -2.4102    1.2042 C   0  0  0  0  0  0  0  0  0  0  0  0
    5.8241   -2.4366    1.9993 N   0  0  0  0  0  0  0  0  0  0  0  0
    6.4340   -3.6179    2.1330 C   0  0  0  0  0  0  0  0  0  0  0  0
    6.0657   -4.7609    1.5535 N   0  0  0  0  0  0  0  0  0  0  0  0
    4.9750   -4.7315    0.7650 C   0  0  0  0  0  0  0  0  0  0  0  0
    4.5474   -5.9181    0.1092 N   0  0  0  0  0  0  0  0  0  0  0  0
    5.0607   -7.2321    0.2810 C   0  0  0  0  0  0  0  0  0  0  0  0
    5.6243   -7.6525    1.4940 C   0  0  0  0  0  0  0  0  0  0  0  0
    6.1671   -8.9322    1.6559 C   0  0  0  0  0  0  0  0  0  0  0  0
    6.0992   -9.8299    0.5832 C   0  0  0  0  0  0  0  0  0  0  0  0
    6.5389  -11.1460    0.3287 C   0  0  0  0  0  0  0  0  0  0  0  0
    6.1892  -11.5802   -0.8848 N   0  0  0  0  0  0  0  0  0  0  0  0
    5.5225  -10.5347   -1.4085 N   0  0  0  0  0  0  0  0  0  0  0  0
    5.4582   -9.4409   -0.5856 C   0  0  0  0  0  0  0  0  0  0  0  0
    4.9085   -8.1642   -0.7640 C   0  0  0  0  0  0  0  0  0  0  0  0
    4.2557   -3.5433    0.5573 C   0  0  0  0  0  0  0  0  0  0  0  0
    3.1061   -3.4264   -0.2503 C   0  0  0  0  0  0  0  0  0  0  0  0
    2.5137   -2.1875   -0.5188 C   0  0  0  0  0  0  0  0  0  0  0  0
    1.4687   -2.3173   -1.3878 O   0  0  0  0  0  0  0  0  0  0  0  0
    0.8441   -1.1655   -1.9244 C   0  0  0  0  0  0  0  0  0  0  0  0
    3.1920    2.0017   -0.9134 H   0  0  0  0  0  0  0  0  0  0  0  0
    4.4986    0.9892   -0.3153 H   0  0  0  0  0  0  0  0  0  0  0  0
    3.3612    1.7697    0.8386 H   0  0  0  0  0  0  0  0  0  0  0  0
    4.5069   -0.3380    1.5320 H   0  0  0  0  0  0  0  0  0  0  0  0
    7.3161   -3.6499    2.7645 H   0  0  0  0  0  0  0  0  0  0  0  0
    4.4000   -5.7185   -0.8721 H   0  0  0  0  0  0  0  0  0  0  0  0
    5.6632   -6.9767    2.3429 H   0  0  0  0  0  0  0  0  0  0  0  0
    6.6352   -9.2081    2.5952 H   0  0  0  0  0  0  0  0  0  0  0  0
    7.1037  -11.7983    0.9816 H   0  0  0  0  0  0  0  0  0  0  0  0
    5.1463  -10.6286   -2.3446 H   0  0  0  0  0  0  0  0  0  0  0  0
    4.4114   -7.8999   -1.6911 H   0  0  0  0  0  0  0  0  0  0  0  0
    2.6659   -4.3094   -0.7101 H   0  0  0  0  0  0  0  0  0  0  0  0
    0.2361   -1.5013   -2.7715 H   0  0  0  0  0  0  0  0  0  0  0  0
    1.5648   -0.4460   -2.3226 H   0  0  0  0  0  0  0  0  0  0  0  0
    0.1702   -0.7150   -1.1905 H   0  0  0  0  0  0  0  0  0  0  0  0
  1  2  1  0  0  0  0
  1 25  1  0  0  0  0
  1 26  1  0  0  0  0
  1 27  1  0  0  0  0
  2  3  1  0  0  0  0
  3  4  1  0  0  0  0
  3 22  2  0  0  0  0
  4  5  2  0  0  0  0
  4 28  1  0  0  0  0
  5  6  1  0  0  0  0
  5 20  1  0  0  0  0
  6  7  2  0  0  0  0
  7  8  1  0  0  0  0
  7 29  1  0  0  0  0
  8  9  2  0  0  0  0
  9 10  1  0  0  0  0
  9 20  1  0  0  0  0
 10 11  1  0  0  0  0
 10 30  1  0  0  0  0
 11 12  1  0  0  0  0
 11 19  2  0  0  0  0
 12 13  2  0  0  0  0
 12 31  1  0  0  0  0
 13 14  1  0  0  0  0
 13 32  1  0  0  0  0
 14 15  1  0  0  0  0
 14 18  2  0  0  0  0
 15 16  2  0  0  0  0
 15 33  1  0  0  0  0
 16 17  1  0  0  0  0
 17 18  1  0  0  0  0
 17 34  1  0  0  0  0
 18 19  1  0  0  0  0
 19 35  1  0  0  0  0
 20 21  2  0  0  0  0
 21 22  1  0  0  0  0
 21 36  1  0  0  0  0
 22 23  1  0  0  0  0
 23 24  1  0  0  0  0
 24 37  1  0  0  0  0
 24 38  1  0  0  0  0
 24 39  1  0  0  0  0
M  END
$$$$
