CHEMBL241084
 OpenBabel04072215363D

 48 50  0  0  0  0  0  0  0  0999 V2000
   10.4001    3.7534   -4.7861 C   0  0  0  0  0  0  0  0  0  0  0  0
    9.0894    4.0071   -5.2790 O   0  0  0  0  0  0  0  0  0  0  0  0
    8.0905    4.0657   -4.3447 C   0  0  0  0  0  0  0  0  0  0  0  0
    8.3205    4.5180   -3.0357 C   0  0  0  0  0  0  0  0  0  0  0  0
    7.2550    4.7564   -2.1650 C   0  0  0  0  0  0  0  0  0  0  0  0
    5.9544    4.5133   -2.5853 C   0  0  0  0  0  0  0  0  0  0  0  0
    4.8514    4.9431   -1.8345 N   0  0  0  0  0  0  0  0  0  0  0  0
    4.7012    6.1372   -1.1445 C   0  0  0  0  0  0  0  0  0  0  0  0
    3.8338    6.1652   -0.2713 O   0  0  0  0  0  0  0  0  0  0  0  0
    5.4876    7.3121   -1.4922 C   0  0  0  0  0  0  0  0  0  0  0  0
    5.9104    8.3339   -0.6504 C   0  0  0  0  0  0  0  0  0  0  0  0
    5.6810    8.4290    0.6807 N   0  0  0  0  0  0  0  0  0  0  0  0
    6.4640    9.2708    1.5654 C   0  0  0  0  0  0  0  0  0  0  0  0
    7.5555    8.4711    2.2367 C   0  0  0  0  0  0  0  0  0  0  0  0
    8.9070    8.6972    1.9486 C   0  0  0  0  0  0  0  0  0  0  0  0
    9.8656    7.9497    2.6216 C   0  0  0  0  0  0  0  0  0  0  0  0
    9.5745    7.0058    3.5405 N   0  0  0  0  0  0  0  0  0  0  0  0
    8.2648    6.7960    3.7940 C   0  0  0  0  0  0  0  0  0  0  0  0
    7.2402    7.4901    3.1817 C   0  0  0  0  0  0  0  0  0  0  0  0
    6.6002    9.2489   -1.4625 C   0  0  0  0  0  0  0  0  0  0  0  0
    6.6283    8.8677   -2.7343 N   0  0  0  0  0  0  0  0  0  0  0  0
    5.8975    7.7372   -2.7457 N   0  0  0  0  0  0  0  0  0  0  0  0
    5.6224    7.1849   -4.0528 C   0  0  0  0  0  0  0  0  0  0  0  0
    5.7147    3.9462   -3.8360 C   0  0  0  0  0  0  0  0  0  0  0  0
    6.7714    3.7843   -4.7454 C   0  0  0  0  0  0  0  0  0  0  0  0
    6.3327    3.4923   -6.0128 O   0  0  0  0  0  0  0  0  0  0  0  0
    7.2157    2.7676   -6.8558 C   0  0  0  0  0  0  0  0  0  0  0  0
   11.0498    3.5714   -5.6472 H   0  0  0  0  0  0  0  0  0  0  0  0
   10.4120    2.8567   -4.1577 H   0  0  0  0  0  0  0  0  0  0  0  0
   10.8045    4.6182   -4.2508 H   0  0  0  0  0  0  0  0  0  0  0  0
    9.3139    4.7776   -2.6859 H   0  0  0  0  0  0  0  0  0  0  0  0
    7.4604    5.1610   -1.1760 H   0  0  0  0  0  0  0  0  0  0  0  0
    4.0351    4.3471   -1.7965 H   0  0  0  0  0  0  0  0  0  0  0  0
    5.0949    7.7354    1.1420 H   0  0  0  0  0  0  0  0  0  0  0  0
    5.8120    9.6986    2.3382 H   0  0  0  0  0  0  0  0  0  0  0  0
    6.8976   10.1297    1.0471 H   0  0  0  0  0  0  0  0  0  0  0  0
    9.2191    9.4374    1.2201 H   0  0  0  0  0  0  0  0  0  0  0  0
   10.9257    8.1000    2.4344 H   0  0  0  0  0  0  0  0  0  0  0  0
    8.0540    6.0294    4.5344 H   0  0  0  0  0  0  0  0  0  0  0  0
    6.2050    7.2713    3.4309 H   0  0  0  0  0  0  0  0  0  0  0  0
    7.0693   10.1842   -1.2004 H   0  0  0  0  0  0  0  0  0  0  0  0
    5.5693    7.9961   -4.7825 H   0  0  0  0  0  0  0  0  0  0  0  0
    4.6713    6.6498   -4.0480 H   0  0  0  0  0  0  0  0  0  0  0  0
    6.4641    6.5524   -4.3285 H   0  0  0  0  0  0  0  0  0  0  0  0
    4.6979    3.7790   -4.1832 H   0  0  0  0  0  0  0  0  0  0  0  0
    6.6210    2.3816   -7.6898 H   0  0  0  0  0  0  0  0  0  0  0  0
    7.6511    1.9120   -6.3315 H   0  0  0  0  0  0  0  0  0  0  0  0
    7.9834    3.4145   -7.2898 H   0  0  0  0  0  0  0  0  0  0  0  0
  1  2  1  0  0  0  0
  1 28  1  0  0  0  0
  1 29  1  0  0  0  0
  1 30  1  0  0  0  0
  2  3  1  0  0  0  0
  3  4  1  0  0  0  0
  3 25  2  0  0  0  0
  4  5  2  0  0  0  0
  4 31  1  0  0  0  0
  5  6  1  0  0  0  0
  5 32  1  0  0  0  0
  6  7  1  0  0  0  0
  6 24  2  0  0  0  0
  7  8  1  0  0  0  0
  7 33  1  0  0  0  0
  8  9  2  0  0  0  0
  8 10  1  0  0  0  0
 10 11  2  0  0  0  0
 10 22  1  0  0  0  0
 11 12  1  0  0  0  0
 11 20  1  0  0  0  0
 12 13  1  0  0  0  0
 12 34  1  0  0  0  0
 13 14  1  0  0  0  0
 13 35  1  0  0  0  0
 13 36  1  0  0  0  0
 14 15  1  0  0  0  0
 14 19  2  0  0  0  0
 15 16  2  0  0  0  0
 15 37  1  0  0  0  0
 16 17  1  0  0  0  0
 16 38  1  0  0  0  0
 17 18  2  0  0  0  0
 18 19  1  0  0  0  0
 18 39  1  0  0  0  0
 19 40  1  0  0  0  0
 20 21  2  0  0  0  0
 20 41  1  0  0  0  0
 21 22  1  0  0  0  0
 22 23  1  0  0  0  0
 23 42  1  0  0  0  0
 23 43  1  0  0  0  0
 23 44  1  0  0  0  0
 24 25  1  0  0  0  0
 24 45  1  0  0  0  0
 25 26  1  0  0  0  0
 26 27  1  0  0  0  0
 27 46  1  0  0  0  0
 27 47  1  0  0  0  0
 27 48  1  0  0  0  0
M  END
$$$$
