CHEMBL3940692
 OpenBabel04072215373D

 53 56  0  0  0  0  0  0  0  0999 V2000
   -2.7132    0.1856   -2.3244 N   0  0  0  0  0  0  0  0  0  0  0  0
   -1.6088    0.2083   -1.9714 C   0  0  0  0  0  0  0  0  0  0  0  0
   -0.2417    0.1702   -1.5464 C   0  0  0  0  0  0  0  0  0  0  0  0
    0.4052   -1.0629   -1.6265 C   0  0  0  0  0  0  0  0  0  0  0  0
    1.7268   -1.1960   -1.2173 C   0  0  0  0  0  0  0  0  0  0  0  0
    2.4650   -0.1206   -0.7079 C   0  0  0  0  0  0  0  0  0  0  0  0
    3.8117   -0.2487   -0.2564 N   0  0  0  0  0  0  0  0  0  0  0  0
    4.4997   -1.4569   -0.1956 C   0  0  0  0  0  0  0  0  0  0  0  0
    3.9997   -2.5338   -0.4969 O   0  0  0  0  0  0  0  0  0  0  0  0
    5.8090   -1.3572    0.2544 N   0  0  0  0  0  0  0  0  0  0  0  0
    6.6729   -2.4931    0.3105 C   0  0  0  0  0  0  0  0  0  0  0  0
    6.4731   -3.6281   -0.4918 C   0  0  0  0  0  0  0  0  0  0  0  0
    7.2075   -4.8012   -0.3011 C   0  0  0  0  0  0  0  0  0  0  0  0
    8.2031   -4.8458    0.6657 C   0  0  0  0  0  0  0  0  0  0  0  0
    8.8496   -6.0537    0.7936 O   0  0  0  0  0  0  0  0  0  0  0  0
    9.2263   -6.5171    2.0351 C   0  0  0  0  0  0  0  0  0  0  0  0
    8.6448   -6.1280    3.2353 C   0  0  0  0  0  0  0  0  0  0  0  0
    9.1984   -6.6090    4.3996 C   0  0  0  0  0  0  0  0  0  0  0  0
   10.2180   -7.4839    4.4280 N   0  0  0  0  0  0  0  0  0  0  0  0
   10.7272   -7.9265    3.2675 C   0  0  0  0  0  0  0  0  0  0  0  0
   11.7737   -8.8647    3.2847 N   0  0  0  0  0  0  0  0  0  0  0  0
   12.3488   -9.3419    4.4462 C   0  0  0  0  0  0  0  0  0  0  0  0
   12.0620   -9.0471    5.5981 O   0  0  0  0  0  0  0  0  0  0  0  0
   13.4542  -10.3293    4.2230 C   0  0  0  0  0  0  0  0  0  0  0  0
   13.6493  -11.4495    5.2239 C   0  0  0  0  0  0  0  0  0  0  0  0
   14.6438  -10.3268    5.1628 C   0  0  0  0  0  0  0  0  0  0  0  0
   10.2504   -7.4703    2.0445 C   0  0  0  0  0  0  0  0  0  0  0  0
    8.5090   -3.6694    1.3588 C   0  0  0  0  0  0  0  0  0  0  0  0
    9.5343   -3.6322    2.2224 F   0  0  0  0  0  0  0  0  0  0  0  0
    7.7414   -2.5056    1.2054 C   0  0  0  0  0  0  0  0  0  0  0  0
    1.8231    1.1239   -0.6465 C   0  0  0  0  0  0  0  0  0  0  0  0
    0.4682    1.2832   -1.0642 C   0  0  0  0  0  0  0  0  0  0  0  0
   -0.1616    2.6541   -0.9675 C   0  0  0  0  0  0  0  0  0  0  0  0
   -1.4439    2.7370   -1.4031 F   0  0  0  0  0  0  0  0  0  0  0  0
   -0.1762    3.1143    0.3132 F   0  0  0  0  0  0  0  0  0  0  0  0
    0.5305    3.5797   -1.6874 F   0  0  0  0  0  0  0  0  0  0  0  0
   -0.1172   -1.9464   -1.9983 H   0  0  0  0  0  0  0  0  0  0  0  0
    2.1401   -2.1920   -1.3221 H   0  0  0  0  0  0  0  0  0  0  0  0
    4.2920    0.5838    0.0476 H   0  0  0  0  0  0  0  0  0  0  0  0
    6.0343   -0.5778    0.8558 H   0  0  0  0  0  0  0  0  0  0  0  0
    5.7218   -3.6436   -1.2774 H   0  0  0  0  0  0  0  0  0  0  0  0
    6.9767   -5.6776   -0.9019 H   0  0  0  0  0  0  0  0  0  0  0  0
    7.8076   -5.4441    3.2909 H   0  0  0  0  0  0  0  0  0  0  0  0
    8.8392   -6.2918    5.3736 H   0  0  0  0  0  0  0  0  0  0  0  0
   12.1235   -9.1903    2.3974 H   0  0  0  0  0  0  0  0  0  0  0  0
   13.6703  -10.5751    3.1879 H   0  0  0  0  0  0  0  0  0  0  0  0
   13.9553  -12.4211    4.8592 H   0  0  0  0  0  0  0  0  0  0  0  0
   12.9860  -11.4875    6.0835 H   0  0  0  0  0  0  0  0  0  0  0  0
   15.6250  -10.5396    4.7586 H   0  0  0  0  0  0  0  0  0  0  0  0
   14.6465   -9.6122    5.9811 H   0  0  0  0  0  0  0  0  0  0  0  0
   10.6618   -7.8256    1.1069 H   0  0  0  0  0  0  0  0  0  0  0  0
    7.9815   -1.6481    1.8246 H   0  0  0  0  0  0  0  0  0  0  0  0
    2.3556    1.9953   -0.2670 H   0  0  0  0  0  0  0  0  0  0  0  0
  1  2  3  0  0  0  0
  2  3  1  0  0  0  0
  3  4  1  0  0  0  0
  3 32  2  0  0  0  0
  4  5  2  0  0  0  0
  4 37  1  0  0  0  0
  5  6  1  0  0  0  0
  5 38  1  0  0  0  0
  6  7  1  0  0  0  0
  6 31  2  0  0  0  0
  7  8  1  0  0  0  0
  7 39  1  0  0  0  0
  8  9  2  0  0  0  0
  8 10  1  0  0  0  0
 10 11  1  0  0  0  0
 10 40  1  0  0  0  0
 11 12  1  0  0  0  0
 11 30  2  0  0  0  0
 12 13  2  0  0  0  0
 12 41  1  0  0  0  0
 13 14  1  0  0  0  0
 13 42  1  0  0  0  0
 14 15  1  0  0  0  0
 14 28  2  0  0  0  0
 15 16  1  0  0  0  0
 16 17  1  0  0  0  0
 16 27  2  0  0  0  0
 17 18  2  0  0  0  0
 17 43  1  0  0  0  0
 18 19  1  0  0  0  0
 18 44  1  0  0  0  0
 19 20  2  0  0  0  0
 20 21  1  0  0  0  0
 20 27  1  0  0  0  0
 21 22  1  0  0  0  0
 21 45  1  0  0  0  0
 22 23  2  0  0  0  0
 22 24  1  0  0  0  0
 24 25  1  0  0  0  0
 24 26  1  0  0  0  0
 24 46  1  0  0  0  0
 25 26  1  0  0  0  0
 25 47  1  0  0  0  0
 25 48  1  0  0  0  0
 26 49  1  0  0  0  0
 26 50  1  0  0  0  0
 27 51  1  0  0  0  0
 28 29  1  0  0  0  0
 28 30  1  0  0  0  0
 30 52  1  0  0  0  0
 31 32  1  0  0  0  0
 31 53  1  0  0  0  0
 32 33  1  0  0  0  0
 33 34  1  0  0  0  0
 33 35  1  0  0  0  0
 33 36  1  0  0  0  0
M  END
$$$$
