CHEMBL2335018
 OpenBabel04072215363D

 60 63  0  0  0  0  0  0  0  0999 V2000
    1.1740   -0.1943   -0.6732 C   0  0  0  0  0  0  0  0  0  0  0  0
    2.6530   -0.1175   -0.2414 C   0  0  0  0  0  0  0  0  0  0  0  0
    3.5005    0.2923   -1.4519 C   0  0  0  0  0  0  0  0  0  0  0  0
    2.7740    0.9328    0.8728 C   0  0  0  0  0  0  0  0  0  0  0  0
    3.1024   -1.5093    0.2546 C   0  0  0  0  0  0  0  0  0  0  0  0
    2.3338   -2.4654    0.1783 O   0  0  0  0  0  0  0  0  0  0  0  0
    4.3784   -1.5561    0.7737 N   0  0  0  0  0  0  0  0  0  0  0  0
    4.9789   -2.7088    1.2768 C   0  0  0  0  0  0  0  0  0  0  0  0
    4.4622   -3.9027    0.9779 N   0  0  0  0  0  0  0  0  0  0  0  0
    4.9449   -5.0386    1.5316 C   0  0  0  0  0  0  0  0  0  0  0  0
    4.3502   -6.2646    1.2091 N   0  0  0  0  0  0  0  0  0  0  0  0
    3.7215   -6.6101   -0.0008 C   0  0  0  0  0  0  0  0  0  0  0  0
    2.6887   -7.5524   -0.0059 C   0  0  0  0  0  0  0  0  0  0  0  0
    2.0241   -7.8798   -1.1919 C   0  0  0  0  0  0  0  0  0  0  0  0
    2.3900   -7.2720   -2.3935 C   0  0  0  0  0  0  0  0  0  0  0  0
    3.4119   -6.3163   -2.4157 C   0  0  0  0  0  0  0  0  0  0  0  0
    3.8396   -5.6385   -3.6909 C   0  0  0  0  0  0  0  0  0  0  0  0
    3.1313   -6.0389   -4.7855 F   0  0  0  0  0  0  0  0  0  0  0  0
    3.7174   -4.2830   -3.6463 F   0  0  0  0  0  0  0  0  0  0  0  0
    5.1472   -5.8823   -3.9945 F   0  0  0  0  0  0  0  0  0  0  0  0
    4.0565   -5.9887   -1.2122 C   0  0  0  0  0  0  0  0  0  0  0  0
    6.0053   -4.9072    2.4374 C   0  0  0  0  0  0  0  0  0  0  0  0
    6.7817   -5.7681    3.2628 C   0  0  0  0  0  0  0  0  0  0  0  0
    7.7274   -4.9986    3.9217 C   0  0  0  0  0  0  0  0  0  0  0  0
    8.7814   -5.4123    4.9098 C   0  0  0  0  0  0  0  0  0  0  0  0
    9.0946   -4.3433    5.9585 C   0  0  0  0  0  0  0  0  0  0  0  0
   10.1000   -4.8237    6.9723 C   0  0  0  0  0  0  0  0  0  0  0  0
    9.6832   -5.4384    8.1505 C   0  0  0  0  0  0  0  0  0  0  0  0
   10.6446   -5.8492    9.0700 C   0  0  0  0  0  0  0  0  0  0  0  0
   11.9889   -5.6424    8.7883 C   0  0  0  0  0  0  0  0  0  0  0  0
   12.3180   -5.0342    7.5891 C   0  0  0  0  0  0  0  0  0  0  0  0
   11.4072   -4.6262    6.6773 N   0  0  0  0  0  0  0  0  0  0  0  0
    7.5712   -3.7043    3.4704 N   0  0  0  0  0  0  0  0  0  0  0  0
    6.5096   -3.6283    2.6086 C   0  0  0  0  0  0  0  0  0  0  0  0
    6.0591   -2.4947    2.0469 N   0  0  0  0  0  0  0  0  0  0  0  0
    0.8120    0.7727   -1.0430 H   0  0  0  0  0  0  0  0  0  0  0  0
    0.5334   -0.4928    0.1663 H   0  0  0  0  0  0  0  0  0  0  0  0
    1.0291   -0.9326   -1.4719 H   0  0  0  0  0  0  0  0  0  0  0  0
    3.1494    1.2394   -1.8779 H   0  0  0  0  0  0  0  0  0  0  0  0
    3.4485   -0.4685   -2.2411 H   0  0  0  0  0  0  0  0  0  0  0  0
    4.5553    0.4158   -1.1882 H   0  0  0  0  0  0  0  0  0  0  0  0
    2.3555    1.8946    0.5545 H   0  0  0  0  0  0  0  0  0  0  0  0
    3.8150    1.1137    1.1590 H   0  0  0  0  0  0  0  0  0  0  0  0
    2.2373    0.6130    1.7736 H   0  0  0  0  0  0  0  0  0  0  0  0
    4.8915   -0.7159    0.9809 H   0  0  0  0  0  0  0  0  0  0  0  0
    4.5927   -7.0404    1.8051 H   0  0  0  0  0  0  0  0  0  0  0  0
    2.3653   -8.0114    0.9245 H   0  0  0  0  0  0  0  0  0  0  0  0
    1.2093   -8.5992   -1.1750 H   0  0  0  0  0  0  0  0  0  0  0  0
    1.8654   -7.5382   -3.3096 H   0  0  0  0  0  0  0  0  0  0  0  0
    4.8473   -5.2400   -1.2319 H   0  0  0  0  0  0  0  0  0  0  0  0
    6.6630   -6.8388    3.3680 H   0  0  0  0  0  0  0  0  0  0  0  0
    9.6910   -5.6860    4.3611 H   0  0  0  0  0  0  0  0  0  0  0  0
    8.4377   -6.3249    5.4155 H   0  0  0  0  0  0  0  0  0  0  0  0
    8.1794   -4.0197    6.4700 H   0  0  0  0  0  0  0  0  0  0  0  0
    9.5044   -3.4486    5.4727 H   0  0  0  0  0  0  0  0  0  0  0  0
    8.6289   -5.5887    8.3589 H   0  0  0  0  0  0  0  0  0  0  0  0
   10.3456   -6.3227   10.0010 H   0  0  0  0  0  0  0  0  0  0  0  0
   12.7611   -5.9453    9.4859 H   0  0  0  0  0  0  0  0  0  0  0  0
   13.3553   -4.8523    7.3214 H   0  0  0  0  0  0  0  0  0  0  0  0
    8.1268   -2.9043    3.7366 H   0  0  0  0  0  0  0  0  0  0  0  0
  1  2  1  0  0  0  0
  1 36  1  0  0  0  0
  1 37  1  0  0  0  0
  1 38  1  0  0  0  0
  2  3  1  0  0  0  0
  2  4  1  0  0  0  0
  2  5  1  0  0  0  0
  3 39  1  0  0  0  0
  3 40  1  0  0  0  0
  3 41  1  0  0  0  0
  4 42  1  0  0  0  0
  4 43  1  0  0  0  0
  4 44  1  0  0  0  0
  5  6  2  0  0  0  0
  5  7  1  0  0  0  0
  7  8  1  0  0  0  0
  7 45  1  0  0  0  0
  8  9  1  0  0  0  0
  8 35  2  0  0  0  0
  9 10  2  0  0  0  0
 10 11  1  0  0  0  0
 10 22  1  0  0  0  0
 11 12  1  0  0  0  0
 11 46  1  0  0  0  0
 12 13  1  0  0  0  0
 12 21  2  0  0  0  0
 13 14  2  0  0  0  0
 13 47  1  0  0  0  0
 14 15  1  0  0  0  0
 14 48  1  0  0  0  0
 15 16  2  0  0  0  0
 15 49  1  0  0  0  0
 16 17  1  0  0  0  0
 16 21  1  0  0  0  0
 17 18  1  0  0  0  0
 17 19  1  0  0  0  0
 17 20  1  0  0  0  0
 21 50  1  0  0  0  0
 22 23  1  0  0  0  0
 22 34  2  0  0  0  0
 23 24  2  0  0  0  0
 23 51  1  0  0  0  0
 24 25  1  0  0  0  0
 24 33  1  0  0  0  0
 25 26  1  0  0  0  0
 25 52  1  0  0  0  0
 25 53  1  0  0  0  0
 26 27  1  0  0  0  0
 26 54  1  0  0  0  0
 26 55  1  0  0  0  0
 27 28  1  0  0  0  0
 27 32  2  0  0  0  0
 28 29  2  0  0  0  0
 28 56  1  0  0  0  0
 29 30  1  0  0  0  0
 29 57  1  0  0  0  0
 30 31  2  0  0  0  0
 30 58  1  0  0  0  0
 31 32  1  0  0  0  0
 31 59  1  0  0  0  0
 33 34  1  0  0  0  0
 33 60  1  0  0  0  0
 34 35  1  0  0  0  0
M  END
$$$$
