CHEMBL2022853
 OpenBabel04072215363D

 61 65  0  0  0  0  0  0  0  0999 V2000
   11.2692    2.0100    3.8247 C   0  0  0  0  0  0  0  0  0  0  0  0
   10.3692    1.6201    2.3461 S   0  0  0  0  0  0  0  0  0  0  0  0
   11.1647    2.0577    1.2144 O   0  0  0  0  0  0  0  0  0  0  0  0
    9.9116    0.2502    2.4519 O   0  0  0  0  0  0  0  0  0  0  0  0
    8.9514    2.6811    2.4477 C   0  0  0  0  0  0  0  0  0  0  0  0
    8.0806    2.4786    1.2259 C   0  0  0  0  0  0  0  0  0  0  0  0
    6.9466    3.3814    1.2192 N   0  0  0  0  0  0  0  0  0  0  0  0
    6.9900    4.7360    1.0579 C   0  0  0  0  0  0  0  0  0  0  0  0
    5.6790    5.1662    1.0066 C   0  0  0  0  0  0  0  0  0  0  0  0
    5.2911    6.5480    0.8066 C   0  0  0  0  0  0  0  0  0  0  0  0
    6.0407    7.5848    1.3341 C   0  0  0  0  0  0  0  0  0  0  0  0
    5.7440    8.8854    1.2138 N   0  0  0  0  0  0  0  0  0  0  0  0
    4.6476    9.2628    0.5311 C   0  0  0  0  0  0  0  0  0  0  0  0
    4.4451   10.6338    0.5568 N   0  0  0  0  0  0  0  0  0  0  0  0
    3.8166    8.2958   -0.1171 C   0  0  0  0  0  0  0  0  0  0  0  0
    2.6208    8.4291   -0.9741 C   0  0  0  0  0  0  0  0  0  0  0  0
    1.9457    9.6455   -1.4462 C   0  0  0  0  0  0  0  0  0  0  0  0
    2.6973   10.7683   -1.7725 C   0  0  0  0  0  0  0  0  0  0  0  0
    2.0824   11.9823   -2.0549 C   0  0  0  0  0  0  0  0  0  0  0  0
    0.6980   12.0750   -2.1874 C   0  0  0  0  0  0  0  0  0  0  0  0
    0.0654   13.2867   -2.5423 N   0  0  0  0  0  0  0  0  0  0  0  0
    0.7240   14.3405   -3.1517 C   0  0  0  0  0  0  0  0  0  0  0  0
    1.8747   14.2962   -3.5732 O   0  0  0  0  0  0  0  0  0  0  0  0
   -0.0608   15.4796   -3.2131 N   0  0  0  0  0  0  0  0  0  0  0  0
    0.4060   16.6422   -3.8694 C   0  0  0  0  0  0  0  0  0  0  0  0
    1.1416   16.5647   -5.0615 C   0  0  0  0  0  0  0  0  0  0  0  0
    1.6530   17.7123   -5.6658 C   0  0  0  0  0  0  0  0  0  0  0  0
    1.4302   18.9562   -5.0763 C   0  0  0  0  0  0  0  0  0  0  0  0
    0.6880   19.0261   -3.9017 C   0  0  0  0  0  0  0  0  0  0  0  0
    0.5017   20.2193   -3.3221 F   0  0  0  0  0  0  0  0  0  0  0  0
    0.1577   17.8881   -3.2998 C   0  0  0  0  0  0  0  0  0  0  0  0
   -0.0713   10.9341   -1.9580 C   0  0  0  0  0  0  0  0  0  0  0  0
    0.5484    9.7316   -1.5750 C   0  0  0  0  0  0  0  0  0  0  0  0
    2.1451    7.2007   -1.3802 C   0  0  0  0  0  0  0  0  0  0  0  0
    3.0499    5.9071   -0.7831 S   0  0  0  0  0  0  0  0  0  0  0  0
    4.1605    6.9359    0.0533 C   0  0  0  0  0  0  0  0  0  0  0  0
    4.9304    3.9834    1.2094 C   0  0  0  0  0  0  0  0  0  0  0  0
    5.7021    2.9033    1.3654 N   0  0  0  0  0  0  0  0  0  0  0  0
   12.1684    1.3900    3.8482 H   0  0  0  0  0  0  0  0  0  0  0  0
   10.6420    1.7861    4.6891 H   0  0  0  0  0  0  0  0  0  0  0  0
   11.5449    3.0668    3.8098 H   0  0  0  0  0  0  0  0  0  0  0  0
    9.3212    3.7099    2.5152 H   0  0  0  0  0  0  0  0  0  0  0  0
    8.4115    2.4411    3.3689 H   0  0  0  0  0  0  0  0  0  0  0  0
    7.6971    1.4527    1.1799 H   0  0  0  0  0  0  0  0  0  0  0  0
    8.6322    2.6655    0.2974 H   0  0  0  0  0  0  0  0  0  0  0  0
    7.9296    5.2624    0.9634 H   0  0  0  0  0  0  0  0  0  0  0  0
    6.9410    7.3958    1.9124 H   0  0  0  0  0  0  0  0  0  0  0  0
    5.0794   11.0640    1.2204 H   0  0  0  0  0  0  0  0  0  0  0  0
    3.4778   10.9195    0.6247 H   0  0  0  0  0  0  0  0  0  0  0  0
    3.7844   10.7404   -1.7782 H   0  0  0  0  0  0  0  0  0  0  0  0
    2.7330   12.8451   -2.1609 H   0  0  0  0  0  0  0  0  0  0  0  0
   -0.9416   13.2870   -2.6175 H   0  0  0  0  0  0  0  0  0  0  0  0
   -0.6727   15.6125   -2.4205 H   0  0  0  0  0  0  0  0  0  0  0  0
    1.3329   15.6066   -5.5368 H   0  0  0  0  0  0  0  0  0  0  0  0
    2.2375   17.6274   -6.5783 H   0  0  0  0  0  0  0  0  0  0  0  0
    1.8368   19.8532   -5.5181 H   0  0  0  0  0  0  0  0  0  0  0  0
   -0.3824   17.9927   -2.3664 H   0  0  0  0  0  0  0  0  0  0  0  0
   -1.1512   10.9538   -2.0763 H   0  0  0  0  0  0  0  0  0  0  0  0
   -0.0826    8.8664   -1.3838 H   0  0  0  0  0  0  0  0  0  0  0  0
    1.3019    6.9904   -2.0243 H   0  0  0  0  0  0  0  0  0  0  0  0
    3.8562    3.8582    1.2574 H   0  0  0  0  0  0  0  0  0  0  0  0
  1  2  1  0  0  0  0
  1 39  1  0  0  0  0
  1 40  1  0  0  0  0
  1 41  1  0  0  0  0
  2  3  2  0  0  0  0
  2  4  2  0  0  0  0
  2  5  1  0  0  0  0
  5  6  1  0  0  0  0
  5 42  1  0  0  0  0
  5 43  1  0  0  0  0
  6  7  1  0  0  0  0
  6 44  1  0  0  0  0
  6 45  1  0  0  0  0
  7  8  1  0  0  0  0
  7 38  1  0  0  0  0
  8  9  2  0  0  0  0
  8 46  1  0  0  0  0
  9 10  1  0  0  0  0
  9 37  1  0  0  0  0
 10 11  1  0  0  0  0
 10 36  2  0  0  0  0
 11 12  2  0  0  0  0
 11 47  1  0  0  0  0
 12 13  1  0  0  0  0
 13 14  1  0  0  0  0
 13 15  2  0  0  0  0
 14 48  1  0  0  0  0
 14 49  1  0  0  0  0
 15 16  1  0  0  0  0
 15 36  1  0  0  0  0
 16 17  1  0  0  0  0
 16 34  2  0  0  0  0
 17 18  1  0  0  0  0
 17 33  2  0  0  0  0
 18 19  2  0  0  0  0
 18 50  1  0  0  0  0
 19 20  1  0  0  0  0
 19 51  1  0  0  0  0
 20 21  1  0  0  0  0
 20 32  2  0  0  0  0
 21 22  1  0  0  0  0
 21 52  1  0  0  0  0
 22 23  2  0  0  0  0
 22 24  1  0  0  0  0
 24 25  1  0  0  0  0
 24 53  1  0  0  0  0
 25 26  1  0  0  0  0
 25 31  2  0  0  0  0
 26 27  2  0  0  0  0
 26 54  1  0  0  0  0
 27 28  1  0  0  0  0
 27 55  1  0  0  0  0
 28 29  2  0  0  0  0
 28 56  1  0  0  0  0
 29 30  1  0  0  0  0
 29 31  1  0  0  0  0
 31 57  1  0  0  0  0
 32 33  1  0  0  0  0
 32 58  1  0  0  0  0
 33 59  1  0  0  0  0
 34 35  1  0  0  0  0
 34 60  1  0  0  0  0
 35 36  1  0  0  0  0
 37 38  2  0  0  0  0
 37 61  1  0  0  0  0
M  END
$$$$
