CHEMBL3984571
 OpenBabel04072215373D

 65 70  0  0  1  0  0  0  0  0999 V2000
    1.1064   -0.1620   -0.1300 C   0  0  0  0  0  0  0  0  0  0  0  0
    2.2783    0.1743    0.6072 O   0  0  0  0  0  0  0  0  0  0  0  0
    3.0845   -0.8573    1.0146 C   0  0  0  0  0  0  0  0  0  0  0  0
    2.7633   -2.2064    0.9440 C   0  0  0  0  0  0  0  0  0  0  0  0
    3.6773   -3.1550    1.4051 C   0  0  0  0  0  0  0  0  0  0  0  0
    3.4664   -4.5108    1.3952 O   0  0  0  0  0  0  0  0  0  0  0  0
    2.2847   -4.9785    0.7633 C   0  0  0  0  0  0  0  0  0  0  0  0
    4.9217   -2.7507    1.9256 C   0  0  0  0  0  0  0  0  0  0  0  0
    5.3121   -1.4032    1.9656 C   0  0  0  0  0  0  0  0  0  0  0  0
    6.5843   -0.9944    2.4615 N   0  0  0  0  0  0  0  0  0  0  0  0
    7.0145    0.3931    2.0526 C   0  0  0  0  0  0  0  0  0  0  0  0
    6.6423    1.6385    2.8459 C   0  0  2  0  0  0  0  0  0  0  0  0
    6.9924    1.8300    4.3024 C   0  0  0  0  0  0  0  0  0  0  0  0
    5.5443    1.9366    3.8761 C   0  0  1  0  0  0  0  0  0  0  0  0
    4.9107    3.3353    3.9048 C   0  0  0  0  0  0  0  0  0  0  0  0
    4.8129    4.0787    5.0908 C   0  0  0  0  0  0  0  0  0  0  0  0
    4.3025    5.3793    5.0685 C   0  0  0  0  0  0  0  0  0  0  0  0
    3.8780    5.9198    3.8638 C   0  0  0  0  0  0  0  0  0  0  0  0
    3.9958    5.1333    2.7350 C   0  0  0  0  0  0  0  0  0  0  0  0
    4.4962    3.8722    2.7301 N   0  0  0  0  0  0  0  0  0  0  0  0
    7.7747   -1.7801    2.7470 C   0  0  0  0  0  0  0  0  0  0  0  0
    8.4767   -1.3453    3.8661 C   0  0  0  0  0  0  0  0  0  0  0  0
    9.8259   -1.5912    4.0088 C   0  0  0  0  0  0  0  0  0  0  0  0
   10.4970   -2.4205    3.1550 C   0  0  0  0  0  0  0  0  0  0  0  0
   11.8183   -2.4232    3.3627 N   0  0  0  0  0  0  0  0  0  0  0  0
   12.5281   -3.3208    2.7045 C   0  0  0  0  0  0  0  0  0  0  0  0
   11.9272   -4.2866    1.8931 C   0  0  0  0  0  0  0  0  0  0  0  0
   12.8036   -5.3907    1.4974 C   0  0  0  0  0  0  0  0  0  0  0  0
   13.0101   -6.6554    2.1206 C   0  0  0  0  0  0  0  0  0  0  0  0
   14.0786   -7.3102    1.6408 N   0  0  0  0  0  0  0  0  0  0  0  0
   14.5725   -6.4646    0.7212 N   0  0  0  0  0  0  0  0  0  0  0  0
   15.5456   -6.9119   -0.2481 C   0  0  0  0  0  0  0  0  0  0  0  0
   13.9578   -5.2428    0.7392 C   0  0  0  0  0  0  0  0  0  0  0  0
   10.5823   -4.2114    1.5820 N   0  0  0  0  0  0  0  0  0  0  0  0
    9.8219   -3.1974    2.1876 C   0  0  0  0  0  0  0  0  0  0  0  0
    8.4215   -2.7821    1.9637 C   0  0  0  0  0  0  0  0  0  0  0  0
    4.3290   -0.4746    1.5416 C   0  0  0  0  0  0  0  0  0  0  0  0
    0.6789    0.7640   -0.5286 H   0  0  0  0  0  0  0  0  0  0  0  0
    0.3555   -0.6229    0.5204 H   0  0  0  0  0  0  0  0  0  0  0  0
    1.3366   -0.8084   -0.9839 H   0  0  0  0  0  0  0  0  0  0  0  0
    1.8037   -2.5113    0.5493 H   0  0  0  0  0  0  0  0  0  0  0  0
    2.3117   -6.0629    0.7603 H   0  0  0  0  0  0  0  0  0  0  0  0
    2.2318   -4.6400   -0.2863 H   0  0  0  0  0  0  0  0  0  0  0  0
    1.3908   -4.6634    1.3201 H   0  0  0  0  0  0  0  0  0  0  0  0
    5.5912   -3.5174    2.3072 H   0  0  0  0  0  0  0  0  0  0  0  0
    6.7137    0.5572    1.0081 H   0  0  0  0  0  0  0  0  0  0  0  0
    8.1119    0.4410    1.9866 H   0  0  0  0  0  0  0  0  0  0  0  0
    6.8757    2.4890    2.2009 H   0  0  0  0  0  0  0  0  0  0  0  0
    7.5387    2.7342    4.5581 H   0  0  0  0  0  0  0  0  0  0  0  0
    7.2012    1.0159    4.9748 H   0  0  0  0  0  0  0  0  0  0  0  0
    4.8910    1.1217    4.1718 H   0  0  0  0  0  0  0  0  0  0  0  0
    5.1561    3.6582    6.0319 H   0  0  0  0  0  0  0  0  0  0  0  0
    4.2264    5.9624    5.9837 H   0  0  0  0  0  0  0  0  0  0  0  0
    3.4772    6.9258    3.8025 H   0  0  0  0  0  0  0  0  0  0  0  0
    3.6838    5.5021    1.7618 H   0  0  0  0  0  0  0  0  0  0  0  0
    7.9996   -0.7085    4.5870 H   0  0  0  0  0  0  0  0  0  0  0  0
   10.3742   -1.0944    4.8008 H   0  0  0  0  0  0  0  0  0  0  0  0
   13.5937   -3.3080    2.8747 H   0  0  0  0  0  0  0  0  0  0  0  0
   12.4588   -7.1163    2.9314 H   0  0  0  0  0  0  0  0  0  0  0  0
   15.7660   -7.9716   -0.0957 H   0  0  0  0  0  0  0  0  0  0  0  0
   16.4564   -6.3158   -0.1575 H   0  0  0  0  0  0  0  0  0  0  0  0
   15.0983   -6.7736   -1.2366 H   0  0  0  0  0  0  0  0  0  0  0  0
   14.3703   -4.4019    0.2004 H   0  0  0  0  0  0  0  0  0  0  0  0
    7.9002   -3.2367    1.1228 H   0  0  0  0  0  0  0  0  0  0  0  0
    4.5002    0.5972    1.6083 H   0  0  0  0  0  0  0  0  0  0  0  0
  1  2  1  0  0  0  0
  1 38  1  0  0  0  0
  1 39  1  0  0  0  0
  1 40  1  0  0  0  0
  2  3  1  0  0  0  0
  3  4  1  0  0  0  0
  3 37  2  0  0  0  0
  4  5  2  0  0  0  0
  4 41  1  0  0  0  0
  5  6  1  0  0  0  0
  5  8  1  0  0  0  0
  6  7  1  0  0  0  0
  7 42  1  0  0  0  0
  7 43  1  0  0  0  0
  7 44  1  0  0  0  0
  8  9  2  0  0  0  0
  8 45  1  0  0  0  0
  9 10  1  0  0  0  0
  9 37  1  0  0  0  0
 10 11  1  0  0  0  0
 10 21  1  0  0  0  0
 11 12  1  0  0  0  0
 11 46  1  0  0  0  0
 11 47  1  0  0  0  0
 12 13  1  0  0  0  0
 12 14  1  0  0  0  0
 12 48  1  6  0  0  0
 13 14  1  0  0  0  0
 13 49  1  0  0  0  0
 13 50  1  0  0  0  0
 14 15  1  0  0  0  0
 14 51  1  1  0  0  0
 15 16  1  0  0  0  0
 15 20  2  0  0  0  0
 16 17  2  0  0  0  0
 16 52  1  0  0  0  0
 17 18  1  0  0  0  0
 17 53  1  0  0  0  0
 18 19  2  0  0  0  0
 18 54  1  0  0  0  0
 19 20  1  0  0  0  0
 19 55  1  0  0  0  0
 21 22  1  0  0  0  0
 21 36  2  0  0  0  0
 22 23  2  0  0  0  0
 22 56  1  0  0  0  0
 23 24  1  0  0  0  0
 23 57  1  0  0  0  0
 24 25  1  0  0  0  0
 24 35  2  0  0  0  0
 25 26  2  0  0  0  0
 26 27  1  0  0  0  0
 26 58  1  0  0  0  0
 27 28  1  0  0  0  0
 27 34  2  0  0  0  0
 28 29  1  0  0  0  0
 28 33  2  0  0  0  0
 29 30  2  0  0  0  0
 29 59  1  0  0  0  0
 30 31  1  0  0  0  0
 31 32  1  0  0  0  0
 31 33  1  0  0  0  0
 32 60  1  0  0  0  0
 32 61  1  0  0  0  0
 32 62  1  0  0  0  0
 33 63  1  0  0  0  0
 34 35  1  0  0  0  0
 35 36  1  0  0  0  0
 36 64  1  0  0  0  0
 37 65  1  0  0  0  0
M  END
$$$$
