CHEMBL4798752
 OpenBabel04072215383D

 69 74  0  0  0  0  0  0  0  0999 V2000
   16.3446   -0.2904   -5.2357 C   0  0  0  0  0  0  0  0  0  0  0  0
   15.4821   -0.5803   -6.3248 O   0  0  0  0  0  0  0  0  0  0  0  0
   14.1007   -0.4355   -5.9822 C   0  0  0  0  0  0  0  0  0  0  0  0
   13.2705   -0.6788   -7.2418 C   0  0  0  0  0  0  0  0  0  0  0  0
   11.8773   -0.4899   -6.9717 O   0  0  0  0  0  0  0  0  0  0  0  0
   11.2046    0.4472   -7.7138 C   0  0  0  0  0  0  0  0  0  0  0  0
   10.1651    1.0986   -7.0190 C   0  0  0  0  0  0  0  0  0  0  0  0
    9.4288    2.1623   -7.6179 C   0  0  0  0  0  0  0  0  0  0  0  0
    8.4238    2.9695   -7.0524 C   0  0  0  0  0  0  0  0  0  0  0  0
    7.9740    2.7106   -5.7610 O   0  0  0  0  0  0  0  0  0  0  0  0
    6.6384    2.9834   -5.4987 C   0  0  0  0  0  0  0  0  0  0  0  0
    5.6215    2.7522   -6.4338 C   0  0  0  0  0  0  0  0  0  0  0  0
    4.2839    2.9874   -6.1079 C   0  0  0  0  0  0  0  0  0  0  0  0
    3.9190    3.3926   -4.8198 C   0  0  0  0  0  0  0  0  0  0  0  0
    2.5468    3.4678   -4.4997 N   0  0  0  0  0  0  0  0  0  0  0  0
    1.9164    3.0388   -3.3070 C   0  0  0  0  0  0  0  0  0  0  0  0
    2.6934    2.7236   -2.2390 N   0  0  0  0  0  0  0  0  0  0  0  0
    2.1094    2.3736   -1.0778 C   0  0  0  0  0  0  0  0  0  0  0  0
    0.7445    2.3310   -0.8926 C   0  0  0  0  0  0  0  0  0  0  0  0
   -0.0714    2.6316   -1.9775 C   0  0  0  0  0  0  0  0  0  0  0  0
   -1.4663    2.6196   -1.8373 N   0  0  0  0  0  0  0  0  0  0  0  0
   -2.2795    2.7868   -2.9241 C   0  0  0  0  0  0  0  0  0  0  0  0
   -1.8545    3.0599   -4.1673 C   0  0  0  0  0  0  0  0  0  0  0  0
   -2.8148    3.1208   -5.2747 C   0  0  0  0  0  0  0  0  0  0  0  0
   -3.4225    4.3306   -5.6368 C   0  0  0  0  0  0  0  0  0  0  0  0
   -4.3622    4.3603   -6.6707 C   0  0  0  0  0  0  0  0  0  0  0  0
   -4.6934    3.1835   -7.3342 C   0  0  0  0  0  0  0  0  0  0  0  0
   -5.5980    3.2139   -8.3214 F   0  0  0  0  0  0  0  0  0  0  0  0
   -4.1013    1.9755   -6.9871 C   0  0  0  0  0  0  0  0  0  0  0  0
   -3.1610    1.9430   -5.9561 C   0  0  0  0  0  0  0  0  0  0  0  0
   -0.3759    3.1955   -4.3788 C   0  0  0  0  0  0  0  0  0  0  0  0
    0.0900    3.4094   -5.4958 O   0  0  0  0  0  0  0  0  0  0  0  0
    0.5195    2.9851   -3.2047 C   0  0  0  0  0  0  0  0  0  0  0  0
    4.9416    3.6590   -3.8986 C   0  0  0  0  0  0  0  0  0  0  0  0
    6.2835    3.4565   -4.2333 C   0  0  0  0  0  0  0  0  0  0  0  0
    7.2295    3.7107   -3.3183 F   0  0  0  0  0  0  0  0  0  0  0  0
    7.8369    4.0065   -7.6956 N   0  0  0  0  0  0  0  0  0  0  0  0
    8.1782    4.1733   -8.9694 C   0  0  0  0  0  0  0  0  0  0  0  0
    9.0800    3.4527   -9.6317 N   0  0  0  0  0  0  0  0  0  0  0  0
    9.7044    2.4914   -8.9496 C   0  0  0  0  0  0  0  0  0  0  0  0
   10.6693    1.7890   -9.6421 C   0  0  0  0  0  0  0  0  0  0  0  0
   11.4438    0.7848   -9.0567 C   0  0  0  0  0  0  0  0  0  0  0  0
   12.3746    0.0960   -9.7898 O   0  0  0  0  0  0  0  0  0  0  0  0
   12.9812    0.8265  -10.8613 C   0  0  0  0  0  0  0  0  0  0  0  0
   17.3765   -0.4123   -5.5777 H   0  0  0  0  0  0  0  0  0  0  0  0
   16.1659   -0.9852   -4.4104 H   0  0  0  0  0  0  0  0  0  0  0  0
   16.2107    0.7425   -4.9010 H   0  0  0  0  0  0  0  0  0  0  0  0
   13.9117    0.5781   -5.6083 H   0  0  0  0  0  0  0  0  0  0  0  0
   13.8292   -1.1461   -5.1938 H   0  0  0  0  0  0  0  0  0  0  0  0
   13.4199   -1.7086   -7.5889 H   0  0  0  0  0  0  0  0  0  0  0  0
   13.6808   -0.0150   -8.0053 H   0  0  0  0  0  0  0  0  0  0  0  0
    9.9441    0.7986   -5.9961 H   0  0  0  0  0  0  0  0  0  0  0  0
    5.8510    2.3968   -7.4333 H   0  0  0  0  0  0  0  0  0  0  0  0
    3.5250    2.8107   -6.8662 H   0  0  0  0  0  0  0  0  0  0  0  0
    1.9324    3.3005   -5.3016 H   0  0  0  0  0  0  0  0  0  0  0  0
    2.7988    2.1234   -0.2755 H   0  0  0  0  0  0  0  0  0  0  0  0
    0.3365    2.0540    0.0717 H   0  0  0  0  0  0  0  0  0  0  0  0
   -1.8722    2.2438   -0.9869 H   0  0  0  0  0  0  0  0  0  0  0  0
   -3.3350    2.6491   -2.6996 H   0  0  0  0  0  0  0  0  0  0  0  0
   -3.1660    5.2541   -5.1225 H   0  0  0  0  0  0  0  0  0  0  0  0
   -4.8363    5.2916   -6.9642 H   0  0  0  0  0  0  0  0  0  0  0  0
   -4.3715    1.0700   -7.5208 H   0  0  0  0  0  0  0  0  0  0  0  0
   -2.6973    0.9955   -5.6898 H   0  0  0  0  0  0  0  0  0  0  0  0
    4.7076    4.0183   -2.9020 H   0  0  0  0  0  0  0  0  0  0  0  0
    7.6637    4.9513   -9.5230 H   0  0  0  0  0  0  0  0  0  0  0  0
   10.7999    2.0560  -10.6866 H   0  0  0  0  0  0  0  0  0  0  0  0
   13.8818    0.2922  -11.1767 H   0  0  0  0  0  0  0  0  0  0  0  0
   13.2861    1.8328  -10.5469 H   0  0  0  0  0  0  0  0  0  0  0  0
   12.3091    0.8764  -11.7246 H   0  0  0  0  0  0  0  0  0  0  0  0
  1  2  1  0  0  0  0
  1 45  1  0  0  0  0
  1 46  1  0  0  0  0
  1 47  1  0  0  0  0
  2  3  1  0  0  0  0
  3  4  1  0  0  0  0
  3 48  1  0  0  0  0
  3 49  1  0  0  0  0
  4  5  1  0  0  0  0
  4 50  1  0  0  0  0
  4 51  1  0  0  0  0
  5  6  1  0  0  0  0
  6  7  1  0  0  0  0
  6 42  2  0  0  0  0
  7  8  2  0  0  0  0
  7 52  1  0  0  0  0
  8  9  1  0  0  0  0
  8 40  1  0  0  0  0
  9 10  1  0  0  0  0
  9 37  2  0  0  0  0
 10 11  1  0  0  0  0
 11 12  1  0  0  0  0
 11 35  2  0  0  0  0
 12 13  2  0  0  0  0
 12 53  1  0  0  0  0
 13 14  1  0  0  0  0
 13 54  1  0  0  0  0
 14 15  1  0  0  0  0
 14 34  2  0  0  0  0
 15 16  1  0  0  0  0
 15 55  1  0  0  0  0
 16 17  1  0  0  0  0
 16 33  2  0  0  0  0
 17 18  2  0  0  0  0
 18 19  1  0  0  0  0
 18 56  1  0  0  0  0
 19 20  2  0  0  0  0
 19 57  1  0  0  0  0
 20 21  1  0  0  0  0
 20 33  1  0  0  0  0
 21 22  1  0  0  0  0
 21 58  1  0  0  0  0
 22 23  2  0  0  0  0
 22 59  1  0  0  0  0
 23 24  1  0  0  0  0
 23 31  1  0  0  0  0
 24 25  1  0  0  0  0
 24 30  2  0  0  0  0
 25 26  2  0  0  0  0
 25 60  1  0  0  0  0
 26 27  1  0  0  0  0
 26 61  1  0  0  0  0
 27 28  1  0  0  0  0
 27 29  2  0  0  0  0
 29 30  1  0  0  0  0
 29 62  1  0  0  0  0
 30 63  1  0  0  0  0
 31 32  2  0  0  0  0
 31 33  1  0  0  0  0
 34 35  1  0  0  0  0
 34 64  1  0  0  0  0
 35 36  1  0  0  0  0
 37 38  1  0  0  0  0
 38 39  2  0  0  0  0
 38 65  1  0  0  0  0
 39 40  1  0  0  0  0
 40 41  2  0  0  0  0
 41 42  1  0  0  0  0
 41 66  1  0  0  0  0
 42 43  1  0  0  0  0
 43 44  1  0  0  0  0
 44 67  1  0  0  0  0
 44 68  1  0  0  0  0
 44 69  1  0  0  0  0
M  END
$$$$
