CHEMBL3915544
 OpenBabel04072215373D

 54 58  0  0  0  0  0  0  0  0999 V2000
    6.5741    8.7286   -2.7532 O   0  0  0  0  0  0  0  0  0  0  0  0
    6.9882    8.3477   -1.6579 C   0  0  0  0  0  0  0  0  0  0  0  0
    6.2723    7.4218   -0.9211 N   0  0  0  0  0  0  0  0  0  0  0  0
    5.0688    6.9241   -1.4425 N   0  0  0  0  0  0  0  0  0  0  0  0
    4.1572    6.3232   -0.5944 C   0  0  0  0  0  0  0  0  0  0  0  0
    4.3904    6.1596    0.6036 O   0  0  0  0  0  0  0  0  0  0  0  0
    2.8363    5.9682   -1.1767 C   0  0  0  0  0  0  0  0  0  0  0  0
    1.7298    6.1879   -0.3213 C   0  0  0  0  0  0  0  0  0  0  0  0
    0.4230    5.9656   -0.7693 C   0  0  0  0  0  0  0  0  0  0  0  0
    0.2060    5.5315   -2.0683 C   0  0  0  0  0  0  0  0  0  0  0  0
    1.2921    5.2844   -2.9105 C   0  0  0  0  0  0  0  0  0  0  0  0
    2.6137    5.4840   -2.4734 C   0  0  0  0  0  0  0  0  0  0  0  0
    3.8758    5.1253   -3.6883 S   0  0  0  0  0  0  0  0  0  0  0  0
    4.2850    3.4194   -3.3316 C   0  0  0  0  0  0  0  0  0  0  0  0
    3.4613    2.3486   -3.7217 C   0  0  0  0  0  0  0  0  0  0  0  0
    3.8184    1.0073   -3.4462 C   0  0  0  0  0  0  0  0  0  0  0  0
    5.0872    0.7588   -2.8952 C   0  0  0  0  0  0  0  0  0  0  0  0
    5.9184   -0.3350   -2.4642 C   0  0  0  0  0  0  0  0  0  0  0  0
    6.0565   -0.8584   -1.1058 C   0  0  0  0  0  0  0  0  0  0  0  0
    5.5973   -0.2394    0.0004 C   0  0  0  0  0  0  0  0  0  0  0  0
    6.3904   -0.1819    1.2548 C   0  0  0  0  0  0  0  0  0  0  0  0
    5.8935    0.4963    2.3650 C   0  0  0  0  0  0  0  0  0  0  0  0
    6.7499    0.7624    3.4359 C   0  0  0  0  0  0  0  0  0  0  0  0
    8.0737    0.3528    3.3750 C   0  0  0  0  0  0  0  0  0  0  0  0
    8.4898   -0.3215    2.2415 C   0  0  0  0  0  0  0  0  0  0  0  0
    7.6824   -0.6092    1.1970 N   0  0  0  0  0  0  0  0  0  0  0  0
    7.1250   -0.0816   -3.0223 N   0  0  0  0  0  0  0  0  0  0  0  0
    7.1986    1.2516   -2.8325 N   0  0  0  0  0  0  0  0  0  0  0  0
    5.9610    1.8406   -2.8049 C   0  0  0  0  0  0  0  0  0  0  0  0
    5.5644    3.1732   -2.8295 C   0  0  0  0  0  0  0  0  0  0  0  0
    8.2386    8.8213   -1.0759 C   0  0  0  0  0  0  0  0  0  0  0  0
    9.0552    9.8198   -1.5796 C   0  0  0  0  0  0  0  0  0  0  0  0
   10.2374   10.0098   -0.8090 C   0  0  0  0  0  0  0  0  0  0  0  0
   10.2911    9.1490    0.2646 C   0  0  0  0  0  0  0  0  0  0  0  0
    8.9122    8.1413    0.3476 S   0  0  0  0  0  0  0  0  0  0  0  0
    6.5081    7.1706    0.0376 H   0  0  0  0  0  0  0  0  0  0  0  0
    4.8521    7.1698   -2.4068 H   0  0  0  0  0  0  0  0  0  0  0  0
    1.8910    6.5457    0.6886 H   0  0  0  0  0  0  0  0  0  0  0  0
   -0.4203    6.1561   -0.1028 H   0  0  0  0  0  0  0  0  0  0  0  0
   -0.8046    5.3791   -2.4340 H   0  0  0  0  0  0  0  0  0  0  0  0
    1.0924    4.9421   -3.9257 H   0  0  0  0  0  0  0  0  0  0  0  0
    2.5473    2.5422   -4.2801 H   0  0  0  0  0  0  0  0  0  0  0  0
    3.1806    0.1890   -3.7748 H   0  0  0  0  0  0  0  0  0  0  0  0
    6.9150   -1.5229   -0.9949 H   0  0  0  0  0  0  0  0  0  0  0  0
    4.7804    0.4729   -0.0585 H   0  0  0  0  0  0  0  0  0  0  0  0
    4.8735    0.8670    2.3848 H   0  0  0  0  0  0  0  0  0  0  0  0
    6.3886    1.3171    4.3007 H   0  0  0  0  0  0  0  0  0  0  0  0
    8.7715    0.5703    4.1799 H   0  0  0  0  0  0  0  0  0  0  0  0
    9.5185   -0.6501    2.1327 H   0  0  0  0  0  0  0  0  0  0  0  0
    8.1123    1.7040   -2.8915 H   0  0  0  0  0  0  0  0  0  0  0  0
    6.2611    3.9750   -2.6085 H   0  0  0  0  0  0  0  0  0  0  0  0
    8.8109   10.3816   -2.4749 H   0  0  0  0  0  0  0  0  0  0  0  0
   11.0112   10.7338   -1.0373 H   0  0  0  0  0  0  0  0  0  0  0  0
   11.0752    9.0650    1.0043 H   0  0  0  0  0  0  0  0  0  0  0  0
  1  2  2  0  0  0  0
  2  3  1  0  0  0  0
  2 31  1  0  0  0  0
  3  4  1  0  0  0  0
  3 36  1  0  0  0  0
  4  5  1  0  0  0  0
  4 37  1  0  0  0  0
  5  6  2  0  0  0  0
  5  7  1  0  0  0  0
  7  8  1  0  0  0  0
  7 12  2  0  0  0  0
  8  9  2  0  0  0  0
  8 38  1  0  0  0  0
  9 10  1  0  0  0  0
  9 39  1  0  0  0  0
 10 11  2  0  0  0  0
 10 40  1  0  0  0  0
 11 12  1  0  0  0  0
 11 41  1  0  0  0  0
 12 13  1  0  0  0  0
 13 14  1  0  0  0  0
 14 15  1  0  0  0  0
 14 30  2  0  0  0  0
 15 16  2  0  0  0  0
 15 42  1  0  0  0  0
 16 17  1  0  0  0  0
 16 43  1  0  0  0  0
 17 18  1  0  0  0  0
 17 29  2  0  0  0  0
 18 19  1  0  0  0  0
 18 27  2  0  0  0  0
 19 20  2  0  0  0  0
 19 44  1  0  0  0  0
 20 21  1  0  0  0  0
 20 45  1  0  0  0  0
 21 22  1  0  0  0  0
 21 26  2  0  0  0  0
 22 23  2  0  0  0  0
 22 46  1  0  0  0  0
 23 24  1  0  0  0  0
 23 47  1  0  0  0  0
 24 25  2  0  0  0  0
 24 48  1  0  0  0  0
 25 26  1  0  0  0  0
 25 49  1  0  0  0  0
 27 28  1  0  0  0  0
 28 29  1  0  0  0  0
 28 50  1  0  0  0  0
 29 30  1  0  0  0  0
 30 51  1  0  0  0  0
 31 32  2  0  0  0  0
 31 35  1  0  0  0  0
 32 33  1  0  0  0  0
 32 52  1  0  0  0  0
 33 34  2  0  0  0  0
 33 53  1  0  0  0  0
 34 35  1  0  0  0  0
 34 54  1  0  0  0  0
M  END
$$$$
