CHEMBL3889762
 OpenBabel04072215373D

 74 78  0  0  0  0  0  0  0  0999 V2000
   -1.9472   -2.3740   -0.0710 C   0  0  0  0  0  0  0  0  0  0  0  0
   -1.0891   -1.2449   -0.5733 C   0  0  0  0  0  0  0  0  0  0  0  0
   -1.7523   -0.1422   -1.1421 C   0  0  0  0  0  0  0  0  0  0  0  0
   -1.0612    1.0065   -1.5383 C   0  0  0  0  0  0  0  0  0  0  0  0
   -1.6717    2.1002   -2.1044 O   0  0  0  0  0  0  0  0  0  0  0  0
   -2.8789    2.5151   -1.5552 C   0  0  0  0  0  0  0  0  0  0  0  0
   -3.7169    3.2429   -2.3719 C   0  0  0  0  0  0  0  0  0  0  0  0
   -4.9059    3.6335   -1.8001 C   0  0  0  0  0  0  0  0  0  0  0  0
   -5.7960    4.4153   -2.5594 N   0  0  0  0  0  0  0  0  0  0  0  0
   -6.9593    4.9442   -2.0484 C   0  0  0  0  0  0  0  0  0  0  0  0
   -7.4038    4.8286   -0.9066 O   0  0  0  0  0  0  0  0  0  0  0  0
   -7.7498    5.7257   -3.0469 C   0  0  0  0  0  0  0  0  0  0  0  0
   -8.9782    6.4969   -2.6121 C   0  0  0  0  0  0  0  0  0  0  0  0
   -9.1327    5.2396   -3.4163 C   0  0  0  0  0  0  0  0  0  0  0  0
   -5.2353    3.2969   -0.5477 N   0  0  0  0  0  0  0  0  0  0  0  0
   -4.3467    2.6048    0.1637 C   0  0  0  0  0  0  0  0  0  0  0  0
   -3.1557    2.2104   -0.2747 N   0  0  0  0  0  0  0  0  0  0  0  0
    0.3192    1.0440   -1.4121 C   0  0  0  0  0  0  0  0  0  0  0  0
    0.9954   -0.0599   -0.8867 C   0  0  0  0  0  0  0  0  0  0  0  0
    0.3176   -1.2226   -0.4834 C   0  0  0  0  0  0  0  0  0  0  0  0
    1.0199   -2.3691   -0.0273 N   0  0  0  0  0  0  0  0  0  0  0  0
    2.3809   -2.5954   -0.1856 C   0  0  0  0  0  0  0  0  0  0  0  0
    3.1877   -1.8062   -0.6641 O   0  0  0  0  0  0  0  0  0  0  0  0
    2.7418   -3.8816    0.2035 N   0  0  0  0  0  0  0  0  0  0  0  0
    4.1011   -4.2788    0.1352 C   0  0  0  0  0  0  0  0  0  0  0  0
    4.4377   -5.4676   -0.5176 C   0  0  0  0  0  0  0  0  0  0  0  0
    5.7760   -5.8701   -0.6922 C   0  0  0  0  0  0  0  0  0  0  0  0
    6.0089   -6.9880   -1.4711 N   0  0  0  0  0  0  0  0  0  0  0  0
    7.2633   -7.4476   -2.0711 C   0  0  0  0  0  0  0  0  0  0  0  0
    7.6206   -6.6695   -3.3372 C   0  0  0  0  0  0  0  0  0  0  0  0
    6.6431   -6.9323   -4.4856 C   0  0  0  0  0  0  0  0  0  0  0  0
    6.4431   -8.3573   -4.7905 N   0  0  0  0  0  0  0  0  0  0  0  0
    5.3422   -8.5093   -5.7530 C   0  0  0  0  0  0  0  0  0  0  0  0
    6.1697   -9.1731   -3.6004 C   0  0  0  0  0  0  0  0  0  0  0  0
    7.1506   -8.9322   -2.4490 C   0  0  0  0  0  0  0  0  0  0  0  0
    6.7734   -5.0647   -0.1306 C   0  0  0  0  0  0  0  0  0  0  0  0
    6.4496   -3.9013    0.6045 C   0  0  0  0  0  0  0  0  0  0  0  0
    7.5003   -3.0801    1.3106 C   0  0  0  0  0  0  0  0  0  0  0  0
    8.7422   -3.6396    1.2835 F   0  0  0  0  0  0  0  0  0  0  0  0
    7.6409   -1.8309    0.7882 F   0  0  0  0  0  0  0  0  0  0  0  0
    7.2089   -2.9003    2.6293 F   0  0  0  0  0  0  0  0  0  0  0  0
    5.1097   -3.5014    0.6973 C   0  0  0  0  0  0  0  0  0  0  0  0
   -2.9893   -2.2516   -0.3911 H   0  0  0  0  0  0  0  0  0  0  0  0
   -1.9453   -2.3867    1.0242 H   0  0  0  0  0  0  0  0  0  0  0  0
   -1.6077   -3.3369   -0.4579 H   0  0  0  0  0  0  0  0  0  0  0  0
   -2.8336   -0.1736   -1.2571 H   0  0  0  0  0  0  0  0  0  0  0  0
   -3.4335    3.4825   -3.3871 H   0  0  0  0  0  0  0  0  0  0  0  0
   -5.5508    4.6176   -3.5136 H   0  0  0  0  0  0  0  0  0  0  0  0
   -7.1667    6.1939   -3.8353 H   0  0  0  0  0  0  0  0  0  0  0  0
   -9.1908    7.4420   -3.0971 H   0  0  0  0  0  0  0  0  0  0  0  0
   -9.2616    6.4672   -1.5651 H   0  0  0  0  0  0  0  0  0  0  0  0
   -9.4512    5.3294   -4.4506 H   0  0  0  0  0  0  0  0  0  0  0  0
   -9.5225    4.3654   -2.9026 H   0  0  0  0  0  0  0  0  0  0  0  0
   -4.6242    2.3372    1.1759 H   0  0  0  0  0  0  0  0  0  0  0  0
    0.8808    1.9247   -1.7104 H   0  0  0  0  0  0  0  0  0  0  0  0
    2.0697    0.0408   -0.7842 H   0  0  0  0  0  0  0  0  0  0  0  0
    0.4806   -3.1079    0.3889 H   0  0  0  0  0  0  0  0  0  0  0  0
    2.0648   -4.5866   -0.0496 H   0  0  0  0  0  0  0  0  0  0  0  0
    3.6488   -6.0565   -0.9790 H   0  0  0  0  0  0  0  0  0  0  0  0
    5.2190   -7.6183   -1.5594 H   0  0  0  0  0  0  0  0  0  0  0  0
    8.0728   -7.3491   -1.3389 H   0  0  0  0  0  0  0  0  0  0  0  0
    8.6290   -6.9681   -3.6606 H   0  0  0  0  0  0  0  0  0  0  0  0
    7.6647   -5.5938   -3.1390 H   0  0  0  0  0  0  0  0  0  0  0  0
    7.0565   -6.4532   -5.3847 H   0  0  0  0  0  0  0  0  0  0  0  0
    5.6900   -6.4383   -4.2702 H   0  0  0  0  0  0  0  0  0  0  0  0
    5.4470   -7.8152   -6.5944 H   0  0  0  0  0  0  0  0  0  0  0  0
    4.3644   -8.3243   -5.2909 H   0  0  0  0  0  0  0  0  0  0  0  0
    5.3362   -9.5213   -6.1721 H   0  0  0  0  0  0  0  0  0  0  0  0
    6.2297  -10.2328   -3.8817 H   0  0  0  0  0  0  0  0  0  0  0  0
    5.1476   -9.0050   -3.2400 H   0  0  0  0  0  0  0  0  0  0  0  0
    8.1410   -9.3042   -2.7448 H   0  0  0  0  0  0  0  0  0  0  0  0
    6.8372   -9.5232   -1.5804 H   0  0  0  0  0  0  0  0  0  0  0  0
    7.8179   -5.3469   -0.2290 H   0  0  0  0  0  0  0  0  0  0  0  0
    4.8584   -2.5826    1.2295 H   0  0  0  0  0  0  0  0  0  0  0  0
  1  2  1  0  0  0  0
  1 43  1  0  0  0  0
  1 44  1  0  0  0  0
  1 45  1  0  0  0  0
  2  3  1  0  0  0  0
  2 20  2  0  0  0  0
  3  4  2  0  0  0  0
  3 46  1  0  0  0  0
  4  5  1  0  0  0  0
  4 18  1  0  0  0  0
  5  6  1  0  0  0  0
  6  7  1  0  0  0  0
  6 17  2  0  0  0  0
  7  8  2  0  0  0  0
  7 47  1  0  0  0  0
  8  9  1  0  0  0  0
  8 15  1  0  0  0  0
  9 10  1  0  0  0  0
  9 48  1  0  0  0  0
 10 11  2  0  0  0  0
 10 12  1  0  0  0  0
 12 13  1  0  0  0  0
 12 14  1  0  0  0  0
 12 49  1  0  0  0  0
 13 14  1  0  0  0  0
 13 50  1  0  0  0  0
 13 51  1  0  0  0  0
 14 52  1  0  0  0  0
 14 53  1  0  0  0  0
 15 16  2  0  0  0  0
 16 17  1  0  0  0  0
 16 54  1  0  0  0  0
 18 19  2  0  0  0  0
 18 55  1  0  0  0  0
 19 20  1  0  0  0  0
 19 56  1  0  0  0  0
 20 21  1  0  0  0  0
 21 22  1  0  0  0  0
 21 57  1  0  0  0  0
 22 23  2  0  0  0  0
 22 24  1  0  0  0  0
 24 25  1  0  0  0  0
 24 58  1  0  0  0  0
 25 26  1  0  0  0  0
 25 42  2  0  0  0  0
 26 27  2  0  0  0  0
 26 59  1  0  0  0  0
 27 28  1  0  0  0  0
 27 36  1  0  0  0  0
 28 29  1  0  0  0  0
 28 60  1  0  0  0  0
 29 30  1  0  0  0  0
 29 35  1  0  0  0  0
 29 61  1  0  0  0  0
 30 31  1  0  0  0  0
 30 62  1  0  0  0  0
 30 63  1  0  0  0  0
 31 32  1  0  0  0  0
 31 64  1  0  0  0  0
 31 65  1  0  0  0  0
 32 33  1  0  0  0  0
 32 34  1  0  0  0  0
 33 66  1  0  0  0  0
 33 67  1  0  0  0  0
 33 68  1  0  0  0  0
 34 35  1  0  0  0  0
 34 69  1  0  0  0  0
 34 70  1  0  0  0  0
 35 71  1  0  0  0  0
 35 72  1  0  0  0  0
 36 37  2  0  0  0  0
 36 73  1  0  0  0  0
 37 38  1  0  0  0  0
 37 42  1  0  0  0  0
 38 39  1  0  0  0  0
 38 40  1  0  0  0  0
 38 41  1  0  0  0  0
 42 74  1  0  0  0  0
M  END
$$$$
