CHEMBL3983529
 OpenBabel04072215373D

 73 77  0  0  0  0  0  0  0  0999 V2000
    0.4390    1.2878   -3.5011 C   0  0  0  0  0  0  0  0  0  0  0  0
    1.7085    0.8457   -3.9958 O   0  0  0  0  0  0  0  0  0  0  0  0
    2.7274    0.7155   -3.0807 C   0  0  0  0  0  0  0  0  0  0  0  0
    2.6314    1.1044   -1.7471 C   0  0  0  0  0  0  0  0  0  0  0  0
    3.7359    0.9760   -0.9083 C   0  0  0  0  0  0  0  0  0  0  0  0
    3.7607    1.3055    0.4203 O   0  0  0  0  0  0  0  0  0  0  0  0
    2.5543    1.8226    0.9728 C   0  0  0  0  0  0  0  0  0  0  0  0
    4.9530    0.4846   -1.4129 C   0  0  0  0  0  0  0  0  0  0  0  0
    5.0983    0.0659   -2.7458 C   0  0  0  0  0  0  0  0  0  0  0  0
    6.3848   -0.3597   -3.2574 N   0  0  0  0  0  0  0  0  0  0  0  0
    7.1108   -1.3392   -2.4009 C   0  0  0  0  0  0  0  0  0  0  0  0
    6.2727   -2.4607   -1.6735 C   0  0  0  0  0  0  0  0  0  0  0  0
    5.7663   -3.6659   -2.3821 N   0  0  0  0  0  0  0  0  0  0  0  0
    5.1009   -4.5749   -1.4037 C   0  0  0  0  0  0  0  0  0  0  0  0
    6.0821   -5.3439   -0.4698 C   0  0  0  0  0  0  0  0  0  0  0  0
    7.1095   -6.1376   -1.1912 N   0  0  0  0  0  0  0  0  0  0  0  0
    6.4671   -7.3282   -1.7993 C   0  0  0  0  0  0  0  0  0  0  0  0
    7.4353   -8.2976   -2.4925 C   0  0  0  0  0  0  0  0  0  0  0  0
    8.4569   -8.7210   -1.5972 O   0  0  0  0  0  0  0  0  0  0  0  0
    7.7645   -5.2469   -2.1778 C   0  0  0  0  0  0  0  0  0  0  0  0
    6.8046   -4.4396   -3.0901 C   0  0  0  0  0  0  0  0  0  0  0  0
    7.1442    0.4029   -4.2229 C   0  0  0  0  0  0  0  0  0  0  0  0
    6.4314    1.3491   -4.9469 C   0  0  0  0  0  0  0  0  0  0  0  0
    6.9069    1.8827   -6.1166 C   0  0  0  0  0  0  0  0  0  0  0  0
    8.1766    1.6406   -6.5383 C   0  0  0  0  0  0  0  0  0  0  0  0
    8.3743    2.1461   -7.7375 N   0  0  0  0  0  0  0  0  0  0  0  0
    9.6442    2.2329   -8.1648 C   0  0  0  0  0  0  0  0  0  0  0  0
   10.7013    1.8796   -7.3601 C   0  0  0  0  0  0  0  0  0  0  0  0
   11.9985    2.3920   -7.8354 C   0  0  0  0  0  0  0  0  0  0  0  0
   12.6304    3.6352   -7.5395 C   0  0  0  0  0  0  0  0  0  0  0  0
   13.5901    3.9632   -8.4164 N   0  0  0  0  0  0  0  0  0  0  0  0
   13.5581    2.9582   -9.3062 N   0  0  0  0  0  0  0  0  0  0  0  0
   14.5774    2.8370  -10.3240 C   0  0  0  0  0  0  0  0  0  0  0  0
   12.5235    2.0898   -9.0858 C   0  0  0  0  0  0  0  0  0  0  0  0
   10.4897    1.2134   -6.1485 N   0  0  0  0  0  0  0  0  0  0  0  0
    9.1379    1.0308   -5.7221 C   0  0  0  0  0  0  0  0  0  0  0  0
    8.5380    0.3202   -4.5738 C   0  0  0  0  0  0  0  0  0  0  0  0
    3.9447    0.1778   -3.5632 C   0  0  0  0  0  0  0  0  0  0  0  0
   -0.2861    1.2581   -4.3213 H   0  0  0  0  0  0  0  0  0  0  0  0
    0.4835    2.3238   -3.1434 H   0  0  0  0  0  0  0  0  0  0  0  0
    0.0669    0.6217   -2.7143 H   0  0  0  0  0  0  0  0  0  0  0  0
    1.7082    1.5174   -1.3654 H   0  0  0  0  0  0  0  0  0  0  0  0
    2.7304    2.0056    2.0359 H   0  0  0  0  0  0  0  0  0  0  0  0
    1.7358    1.0979    0.8924 H   0  0  0  0  0  0  0  0  0  0  0  0
    2.2875    2.7760    0.5082 H   0  0  0  0  0  0  0  0  0  0  0  0
    5.8020    0.4460   -0.7360 H   0  0  0  0  0  0  0  0  0  0  0  0
    7.6212   -0.7722   -1.6114 H   0  0  0  0  0  0  0  0  0  0  0  0
    7.8982   -1.8387   -2.9719 H   0  0  0  0  0  0  0  0  0  0  0  0
    5.4024   -2.0122   -1.1850 H   0  0  0  0  0  0  0  0  0  0  0  0
    6.9150   -2.7904   -0.8495 H   0  0  0  0  0  0  0  0  0  0  0  0
    4.4953   -5.3010   -1.9624 H   0  0  0  0  0  0  0  0  0  0  0  0
    4.3762   -4.0209   -0.7945 H   0  0  0  0  0  0  0  0  0  0  0  0
    5.5183   -5.9871    0.2178 H   0  0  0  0  0  0  0  0  0  0  0  0
    6.6015   -4.6321    0.1842 H   0  0  0  0  0  0  0  0  0  0  0  0
    5.6818   -7.0562   -2.5108 H   0  0  0  0  0  0  0  0  0  0  0  0
    5.9891   -7.8901   -0.9853 H   0  0  0  0  0  0  0  0  0  0  0  0
    7.9046   -7.8451   -3.3700 H   0  0  0  0  0  0  0  0  0  0  0  0
    6.8887   -9.1838   -2.8308 H   0  0  0  0  0  0  0  0  0  0  0  0
    8.7219   -7.9184   -1.1080 H   0  0  0  0  0  0  0  0  0  0  0  0
    8.4718   -5.8090   -2.7964 H   0  0  0  0  0  0  0  0  0  0  0  0
    8.3899   -4.5373   -1.6199 H   0  0  0  0  0  0  0  0  0  0  0  0
    6.2976   -5.1456   -3.7624 H   0  0  0  0  0  0  0  0  0  0  0  0
    7.3826   -3.7924   -3.7563 H   0  0  0  0  0  0  0  0  0  0  0  0
    5.4296    1.6618   -4.6903 H   0  0  0  0  0  0  0  0  0  0  0  0
    6.2622    2.5052   -6.7179 H   0  0  0  0  0  0  0  0  0  0  0  0
    9.7756    2.6687   -9.1523 H   0  0  0  0  0  0  0  0  0  0  0  0
   12.3970    4.3491   -6.7590 H   0  0  0  0  0  0  0  0  0  0  0  0
   15.3133    3.6392  -10.2192 H   0  0  0  0  0  0  0  0  0  0  0  0
   14.1161    2.8767  -11.3144 H   0  0  0  0  0  0  0  0  0  0  0  0
   15.0683    1.8715  -10.1747 H   0  0  0  0  0  0  0  0  0  0  0  0
   12.2486    1.3586   -9.8328 H   0  0  0  0  0  0  0  0  0  0  0  0
    9.2241   -0.2858   -3.9831 H   0  0  0  0  0  0  0  0  0  0  0  0
    3.9938   -0.1174   -4.6103 H   0  0  0  0  0  0  0  0  0  0  0  0
  1  2  1  0  0  0  0
  1 39  1  0  0  0  0
  1 40  1  0  0  0  0
  1 41  1  0  0  0  0
  2  3  1  0  0  0  0
  3  4  1  0  0  0  0
  3 38  2  0  0  0  0
  4  5  2  0  0  0  0
  4 42  1  0  0  0  0
  5  6  1  0  0  0  0
  5  8  1  0  0  0  0
  6  7  1  0  0  0  0
  7 43  1  0  0  0  0
  7 44  1  0  0  0  0
  7 45  1  0  0  0  0
  8  9  2  0  0  0  0
  8 46  1  0  0  0  0
  9 10  1  0  0  0  0
  9 38  1  0  0  0  0
 10 11  1  0  0  0  0
 10 22  1  0  0  0  0
 11 12  1  0  0  0  0
 11 47  1  0  0  0  0
 11 48  1  0  0  0  0
 12 13  1  0  0  0  0
 12 49  1  0  0  0  0
 12 50  1  0  0  0  0
 13 14  1  0  0  0  0
 13 21  1  0  0  0  0
 14 15  1  0  0  0  0
 14 51  1  0  0  0  0
 14 52  1  0  0  0  0
 15 16  1  0  0  0  0
 15 53  1  0  0  0  0
 15 54  1  0  0  0  0
 16 17  1  0  0  0  0
 16 20  1  0  0  0  0
 17 18  1  0  0  0  0
 17 55  1  0  0  0  0
 17 56  1  0  0  0  0
 18 19  1  0  0  0  0
 18 57  1  0  0  0  0
 18 58  1  0  0  0  0
 19 59  1  0  0  0  0
 20 21  1  0  0  0  0
 20 60  1  0  0  0  0
 20 61  1  0  0  0  0
 21 62  1  0  0  0  0
 21 63  1  0  0  0  0
 22 23  1  0  0  0  0
 22 37  2  0  0  0  0
 23 24  2  0  0  0  0
 23 64  1  0  0  0  0
 24 25  1  0  0  0  0
 24 65  1  0  0  0  0
 25 26  1  0  0  0  0
 25 36  2  0  0  0  0
 26 27  2  0  0  0  0
 27 28  1  0  0  0  0
 27 66  1  0  0  0  0
 28 29  1  0  0  0  0
 28 35  2  0  0  0  0
 29 30  1  0  0  0  0
 29 34  2  0  0  0  0
 30 31  2  0  0  0  0
 30 67  1  0  0  0  0
 31 32  1  0  0  0  0
 32 33  1  0  0  0  0
 32 34  1  0  0  0  0
 33 68  1  0  0  0  0
 33 69  1  0  0  0  0
 33 70  1  0  0  0  0
 34 71  1  0  0  0  0
 35 36  1  0  0  0  0
 36 37  1  0  0  0  0
 37 72  1  0  0  0  0
 38 73  1  0  0  0  0
M  END
$$$$
