CHEMBL3639893
 OpenBabel04072215373D

 49 52  0  0  0  0  0  0  0  0999 V2000
    2.6204   -1.7564    0.2818 C   0  0  0  0  0  0  0  0  0  0  0  0
    3.5631   -0.7152    0.0512 O   0  0  0  0  0  0  0  0  0  0  0  0
    3.6692    0.2322    1.0278 C   0  0  0  0  0  0  0  0  0  0  0  0
    3.3250    0.0735    2.3551 C   0  0  0  0  0  0  0  0  0  0  0  0
    3.4406    1.0442    3.2840 N   0  0  0  0  0  0  0  0  0  0  0  0
    3.9379    2.2053    2.8392 C   0  0  0  0  0  0  0  0  0  0  0  0
    4.0593    3.4635    3.9850 Cl  0  0  0  0  0  0  0  0  0  0  0  0
    4.3232    2.4925    1.5922 N   0  0  0  0  0  0  0  0  0  0  0  0
    4.1882    1.4830    0.7023 C   0  0  0  0  0  0  0  0  0  0  0  0
    4.5421    1.8234   -0.6936 C   0  0  0  0  0  0  0  0  0  0  0  0
    3.5303    2.2862   -1.6427 C   0  0  0  0  0  0  0  0  0  0  0  0
    3.8685    2.5216   -2.9195 C   0  0  0  0  0  0  0  0  0  0  0  0
    5.1983    2.3698   -3.3320 N   0  0  0  0  0  0  0  0  0  0  0  0
    5.8163    2.6072   -4.5658 C   0  0  0  0  0  0  0  0  0  0  0  0
    5.2026    3.1926   -5.7733 C   0  0  0  0  0  0  0  0  0  0  0  0
    4.2046    4.1670   -5.6578 C   0  0  0  0  0  0  0  0  0  0  0  0
    3.5782    4.6917   -6.7810 C   0  0  0  0  0  0  0  0  0  0  0  0
    3.9994    4.3153   -8.0507 C   0  0  0  0  0  0  0  0  0  0  0  0
    5.0590    3.4312   -8.2185 C   0  0  0  0  0  0  0  0  0  0  0  0
    5.5834    3.1068   -9.5019 N   0  0  0  0  0  0  0  0  0  0  0  0
    5.1957    3.6726  -10.6992 C   0  0  0  0  0  0  0  0  0  0  0  0
    4.3495    4.5371  -10.8716 O   0  0  0  0  0  0  0  0  0  0  0  0
    5.8499    3.1314  -11.7828 N   0  0  0  0  0  0  0  0  0  0  0  0
    5.5290    3.6593  -13.1207 C   0  0  0  0  0  0  0  0  0  0  0  0
    6.1608    5.0118  -13.4877 C   0  0  0  0  0  0  0  0  0  0  0  0
    7.0882    5.4036  -12.5841 F   0  0  0  0  0  0  0  0  0  0  0  0
    6.7999    4.9081  -14.6812 F   0  0  0  0  0  0  0  0  0  0  0  0
    5.2464    5.9957  -13.6104 F   0  0  0  0  0  0  0  0  0  0  0  0
    5.6360    2.8413   -7.0714 C   0  0  0  0  0  0  0  0  0  0  0  0
    7.1263    2.2011   -4.3525 C   0  0  0  0  0  0  0  0  0  0  0  0
    7.3438    1.7772   -3.0693 N   0  0  0  0  0  0  0  0  0  0  0  0
    6.1863    1.9107   -2.4581 C   0  0  0  0  0  0  0  0  0  0  0  0
    5.8178    1.6448   -1.1053 C   0  0  0  0  0  0  0  0  0  0  0  0
    2.5715   -2.3668   -0.6248 H   0  0  0  0  0  0  0  0  0  0  0  0
    1.6218   -1.3461    0.4660 H   0  0  0  0  0  0  0  0  0  0  0  0
    2.9370   -2.4067    1.1029 H   0  0  0  0  0  0  0  0  0  0  0  0
    2.9377   -0.8610    2.7476 H   0  0  0  0  0  0  0  0  0  0  0  0
    2.5118    2.4268   -1.2920 H   0  0  0  0  0  0  0  0  0  0  0  0
    3.1317    2.8290   -3.6463 H   0  0  0  0  0  0  0  0  0  0  0  0
    3.8998    4.5573   -4.6903 H   0  0  0  0  0  0  0  0  0  0  0  0
    2.7715    5.4131   -6.6752 H   0  0  0  0  0  0  0  0  0  0  0  0
    3.4783    4.7610   -8.8893 H   0  0  0  0  0  0  0  0  0  0  0  0
    6.3283    2.4265   -9.5351 H   0  0  0  0  0  0  0  0  0  0  0  0
    6.7978    2.8154  -11.6328 H   0  0  0  0  0  0  0  0  0  0  0  0
    4.4382    3.7445  -13.2052 H   0  0  0  0  0  0  0  0  0  0  0  0
    5.8471    2.8966  -13.8364 H   0  0  0  0  0  0  0  0  0  0  0  0
    6.4412    2.1149   -7.1864 H   0  0  0  0  0  0  0  0  0  0  0  0
    7.9424    2.2240   -5.0638 H   0  0  0  0  0  0  0  0  0  0  0  0
    6.5931    1.2867   -0.4372 H   0  0  0  0  0  0  0  0  0  0  0  0
  1  2  1  0  0  0  0
  1 34  1  0  0  0  0
  1 35  1  0  0  0  0
  1 36  1  0  0  0  0
  2  3  1  0  0  0  0
  3  4  1  0  0  0  0
  3  9  2  0  0  0  0
  4  5  2  0  0  0  0
  4 37  1  0  0  0  0
  5  6  1  0  0  0  0
  6  7  1  0  0  0  0
  6  8  2  0  0  0  0
  8  9  1  0  0  0  0
  9 10  1  0  0  0  0
 10 11  1  0  0  0  0
 10 33  2  0  0  0  0
 11 12  2  0  0  0  0
 11 38  1  0  0  0  0
 12 13  1  0  0  0  0
 12 39  1  0  0  0  0
 13 14  1  0  0  0  0
 13 32  1  0  0  0  0
 14 15  1  0  0  0  0
 14 30  2  0  0  0  0
 15 16  1  0  0  0  0
 15 29  2  0  0  0  0
 16 17  2  0  0  0  0
 16 40  1  0  0  0  0
 17 18  1  0  0  0  0
 17 41  1  0  0  0  0
 18 19  2  0  0  0  0
 18 42  1  0  0  0  0
 19 20  1  0  0  0  0
 19 29  1  0  0  0  0
 20 21  1  0  0  0  0
 20 43  1  0  0  0  0
 21 22  2  0  0  0  0
 21 23  1  0  0  0  0
 23 24  1  0  0  0  0
 23 44  1  0  0  0  0
 24 25  1  0  0  0  0
 24 45  1  0  0  0  0
 24 46  1  0  0  0  0
 25 26  1  0  0  0  0
 25 27  1  0  0  0  0
 25 28  1  0  0  0  0
 29 47  1  0  0  0  0
 30 31  1  0  0  0  0
 30 48  1  0  0  0  0
 31 32  2  0  0  0  0
 32 33  1  0  0  0  0
 33 49  1  0  0  0  0
M  END
$$$$
