CHEMBL4093721
 OpenBabel04072215383D

 40 43  0  0  0  0  0  0  0  0999 V2000
   -1.0349    2.1767   -3.3980 C   0  0  0  0  0  0  0  0  0  0  0  0
   -1.2981    1.0109   -2.5104 C   0  0  0  0  0  0  0  0  0  0  0  0
   -1.7037   -0.1223   -3.1054 N   0  0  0  0  0  0  0  0  0  0  0  0
   -1.8765   -0.9749   -2.0882 N   0  0  0  0  0  0  0  0  0  0  0  0
   -1.6001   -0.4466   -0.8666 C   0  0  0  0  0  0  0  0  0  0  0  0
   -1.7132   -1.1146    0.2942 N   0  0  0  0  0  0  0  0  0  0  0  0
   -1.3773   -0.3690    1.3620 C   0  0  0  0  0  0  0  0  0  0  0  0
   -0.9534    0.9510    1.3167 C   0  0  0  0  0  0  0  0  0  0  0  0
   -0.8472    1.6241    0.0821 C   0  0  0  0  0  0  0  0  0  0  0  0
   -0.3747    3.0188    0.0192 C   0  0  0  0  0  0  0  0  0  0  0  0
    0.5518    3.4114   -0.9471 C   0  0  0  0  0  0  0  0  0  0  0  0
    0.9385    4.7438   -1.1008 C   0  0  0  0  0  0  0  0  0  0  0  0
    0.4960    5.7266   -0.2199 C   0  0  0  0  0  0  0  0  0  0  0  0
    0.8790    7.0836   -0.3265 N   0  0  0  0  0  0  0  0  0  0  0  0
    1.5449    7.6464   -1.4036 C   0  0  0  0  0  0  0  0  0  0  0  0
    1.8491    7.0768   -2.4480 O   0  0  0  0  0  0  0  0  0  0  0  0
    1.8413    8.9832   -1.2065 N   0  0  0  0  0  0  0  0  0  0  0  0
    2.5363    9.7122   -2.2273 C   0  0  0  0  0  0  0  0  0  0  0  0
    4.0419    9.7660   -2.2333 C   0  0  0  0  0  0  0  0  0  0  0  0
    3.2440   11.0042   -1.9424 C   0  0  0  0  0  0  0  0  0  0  0  0
   -0.3414    5.3386    0.8284 C   0  0  0  0  0  0  0  0  0  0  0  0
   -0.7839    4.0058    0.9350 C   0  0  0  0  0  0  0  0  0  0  0  0
   -1.1991    0.8701   -1.0786 C   0  0  0  0  0  0  0  0  0  0  0  0
   -1.3550    1.9693   -4.4263 H   0  0  0  0  0  0  0  0  0  0  0  0
    0.0342    2.3953   -3.4611 H   0  0  0  0  0  0  0  0  0  0  0  0
   -1.5748    3.0633   -3.0575 H   0  0  0  0  0  0  0  0  0  0  0  0
   -2.1857   -1.9170   -2.2784 H   0  0  0  0  0  0  0  0  0  0  0  0
   -1.4532   -0.8863    2.3159 H   0  0  0  0  0  0  0  0  0  0  0  0
   -0.6870    1.4450    2.2465 H   0  0  0  0  0  0  0  0  0  0  0  0
    0.9954    2.6779   -1.6118 H   0  0  0  0  0  0  0  0  0  0  0  0
    1.6042    4.9638   -1.9283 H   0  0  0  0  0  0  0  0  0  0  0  0
    0.5188    7.7201    0.3618 H   0  0  0  0  0  0  0  0  0  0  0  0
    1.8602    9.3357   -0.2630 H   0  0  0  0  0  0  0  0  0  0  0  0
    2.0588    9.6201   -3.2008 H   0  0  0  0  0  0  0  0  0  0  0  0
    4.5364    9.6821   -3.1948 H   0  0  0  0  0  0  0  0  0  0  0  0
    4.5803    9.2947   -1.4201 H   0  0  0  0  0  0  0  0  0  0  0  0
    3.2060   11.7699   -2.7086 H   0  0  0  0  0  0  0  0  0  0  0  0
    3.2541   11.3851   -0.9305 H   0  0  0  0  0  0  0  0  0  0  0  0
   -0.6785    6.0591    1.5708 H   0  0  0  0  0  0  0  0  0  0  0  0
   -1.4616    3.7516    1.7487 H   0  0  0  0  0  0  0  0  0  0  0  0
  1  2  1  0  0  0  0
  1 24  1  0  0  0  0
  1 25  1  0  0  0  0
  1 26  1  0  0  0  0
  2  3  2  0  0  0  0
  2 23  1  0  0  0  0
  3  4  1  0  0  0  0
  4  5  1  0  0  0  0
  4 27  1  0  0  0  0
  5  6  1  0  0  0  0
  5 23  2  0  0  0  0
  6  7  2  0  0  0  0
  7  8  1  0  0  0  0
  7 28  1  0  0  0  0
  8  9  2  0  0  0  0
  8 29  1  0  0  0  0
  9 10  1  0  0  0  0
  9 23  1  0  0  0  0
 10 11  1  0  0  0  0
 10 22  2  0  0  0  0
 11 12  2  0  0  0  0
 11 30  1  0  0  0  0
 12 13  1  0  0  0  0
 12 31  1  0  0  0  0
 13 14  1  0  0  0  0
 13 21  2  0  0  0  0
 14 15  1  0  0  0  0
 14 32  1  0  0  0  0
 15 16  2  0  0  0  0
 15 17  1  0  0  0  0
 17 18  1  0  0  0  0
 17 33  1  0  0  0  0
 18 19  1  0  0  0  0
 18 20  1  0  0  0  0
 18 34  1  0  0  0  0
 19 20  1  0  0  0  0
 19 35  1  0  0  0  0
 19 36  1  0  0  0  0
 20 37  1  0  0  0  0
 20 38  1  0  0  0  0
 21 22  1  0  0  0  0
 21 39  1  0  0  0  0
 22 40  1  0  0  0  0
M  END
$$$$
