CHEMBL4161287
 OpenBabel04072215383D

 58 62  0  0  0  0  0  0  0  0999 V2000
   -3.4128    3.4522    3.6431 C   0  0  0  0  0  0  0  0  0  0  0  0
   -3.5521    2.1835    2.8506 C   0  0  0  0  0  0  0  0  0  0  0  0
   -4.8209    1.6222    2.6926 C   0  0  0  0  0  0  0  0  0  0  0  0
   -4.9876    0.4206    1.9966 C   0  0  0  0  0  0  0  0  0  0  0  0
   -3.8986   -0.2561    1.4395 C   0  0  0  0  0  0  0  0  0  0  0  0
   -4.0193   -1.5017    0.7728 N   0  0  0  0  0  0  0  0  0  0  0  0
   -5.1500   -2.3165    0.7683 C   0  0  0  0  0  0  0  0  0  0  0  0
   -6.1893   -2.0628    1.3967 O   0  0  0  0  0  0  0  0  0  0  0  0
   -5.0687   -3.6434   -0.0463 C   0  0  0  0  0  0  0  0  0  0  0  0
   -5.5675   -3.2397   -1.4617 C   0  0  0  0  0  0  0  0  0  0  0  0
   -4.8541   -2.4952   -2.1503 O   0  0  0  0  0  0  0  0  0  0  0  0
   -6.8004   -3.7365   -1.8754 N   0  0  0  0  0  0  0  0  0  0  0  0
   -7.4296   -3.4470   -3.1091 C   0  0  0  0  0  0  0  0  0  0  0  0
   -6.7803   -2.8330   -4.1867 C   0  0  0  0  0  0  0  0  0  0  0  0
   -7.4674   -2.5169   -5.3562 C   0  0  0  0  0  0  0  0  0  0  0  0
   -8.8350   -2.7923   -5.5096 C   0  0  0  0  0  0  0  0  0  0  0  0
   -9.5167   -2.4785   -6.7928 C   0  0  0  0  0  0  0  0  0  0  0  0
  -10.4478   -3.3853   -7.3430 C   0  0  0  0  0  0  0  0  0  0  0  0
  -10.9045   -3.2436   -8.6530 C   0  0  0  0  0  0  0  0  0  0  0  0
  -10.4996   -2.1392   -9.3900 C   0  0  0  0  0  0  0  0  0  0  0  0
  -10.8054   -1.9888  -10.8327 C   0  0  0  0  0  0  0  0  0  0  0  0
  -10.8843   -2.9982  -11.5260 O   0  0  0  0  0  0  0  0  0  0  0  0
  -10.9547   -0.7074  -11.3206 N   0  0  0  0  0  0  0  0  0  0  0  0
  -10.3107    0.2092  -10.6782 C   0  0  0  0  0  0  0  0  0  0  0  0
   -9.5208    0.0451   -9.5692 N   0  0  0  0  0  0  0  0  0  0  0  0
   -9.7453   -1.1146   -8.8122 C   0  0  0  0  0  0  0  0  0  0  0  0
   -9.2025   -1.3217   -7.5426 C   0  0  0  0  0  0  0  0  0  0  0  0
   -9.4715   -3.4379   -4.4455 C   0  0  0  0  0  0  0  0  0  0  0  0
   -8.7829   -3.7777   -3.2650 C   0  0  0  0  0  0  0  0  0  0  0  0
   -5.6726   -4.8502    0.7549 C   0  0  0  0  0  0  0  0  0  0  0  0
   -4.5780   -5.7467    0.1796 C   0  0  0  0  0  0  0  0  0  0  0  0
   -3.7436   -4.4798   -0.0822 C   0  0  0  0  0  0  0  0  0  0  0  0
   -2.6320    0.3245    1.5543 C   0  0  0  0  0  0  0  0  0  0  0  0
   -2.4603    1.5257    2.2660 C   0  0  0  0  0  0  0  0  0  0  0  0
   -0.8569    2.1556    2.4158 Cl  0  0  0  0  0  0  0  0  0  0  0  0
   -4.3879    3.8089    3.9967 H   0  0  0  0  0  0  0  0  0  0  0  0
   -2.9799    4.2461    3.0285 H   0  0  0  0  0  0  0  0  0  0  0  0
   -2.7899    3.2826    4.5272 H   0  0  0  0  0  0  0  0  0  0  0  0
   -5.6997    2.1022    3.1159 H   0  0  0  0  0  0  0  0  0  0  0  0
   -6.0017    0.0533    1.8993 H   0  0  0  0  0  0  0  0  0  0  0  0
   -3.2087   -1.8245    0.2588 H   0  0  0  0  0  0  0  0  0  0  0  0
   -7.3554   -4.2445   -1.2020 H   0  0  0  0  0  0  0  0  0  0  0  0
   -5.7240   -2.6017   -4.1537 H   0  0  0  0  0  0  0  0  0  0  0  0
   -6.8948   -2.0616   -6.1632 H   0  0  0  0  0  0  0  0  0  0  0  0
  -10.7732   -4.2541   -6.7781 H   0  0  0  0  0  0  0  0  0  0  0  0
  -11.5595   -3.9896   -9.0939 H   0  0  0  0  0  0  0  0  0  0  0  0
  -10.4011    1.2618  -10.9923 H   0  0  0  0  0  0  0  0  0  0  0  0
   -9.1995    0.8660   -9.0716 H   0  0  0  0  0  0  0  0  0  0  0  0
   -8.5183   -0.5786   -7.1316 H   0  0  0  0  0  0  0  0  0  0  0  0
  -10.5320   -3.6921   -4.5032 H   0  0  0  0  0  0  0  0  0  0  0  0
   -9.3219   -4.2886   -2.4741 H   0  0  0  0  0  0  0  0  0  0  0  0
   -6.7007   -5.1472    0.5410 H   0  0  0  0  0  0  0  0  0  0  0  0
   -5.5867   -4.7290    1.8443 H   0  0  0  0  0  0  0  0  0  0  0  0
   -4.8931   -6.2810   -0.7231 H   0  0  0  0  0  0  0  0  0  0  0  0
   -4.1409   -6.4608    0.8824 H   0  0  0  0  0  0  0  0  0  0  0  0
   -3.2180   -4.5000   -1.0437 H   0  0  0  0  0  0  0  0  0  0  0  0
   -3.0223   -4.2414    0.7047 H   0  0  0  0  0  0  0  0  0  0  0  0
   -1.7610   -0.1601    1.1223 H   0  0  0  0  0  0  0  0  0  0  0  0
  1  2  1  0  0  0  0
  1 36  1  0  0  0  0
  1 37  1  0  0  0  0
  1 38  1  0  0  0  0
  2  3  1  0  0  0  0
  2 34  2  0  0  0  0
  3  4  2  0  0  0  0
  3 39  1  0  0  0  0
  4  5  1  0  0  0  0
  4 40  1  0  0  0  0
  5  6  1  0  0  0  0
  5 33  2  0  0  0  0
  6  7  1  0  0  0  0
  6 41  1  0  0  0  0
  7  8  2  0  0  0  0
  7  9  1  0  0  0  0
  9 10  1  0  0  0  0
  9 30  1  0  0  0  0
  9 32  1  0  0  0  0
 10 11  2  0  0  0  0
 10 12  1  0  0  0  0
 12 13  1  0  0  0  0
 12 42  1  0  0  0  0
 13 14  1  0  0  0  0
 13 29  2  0  0  0  0
 14 15  2  0  0  0  0
 14 43  1  0  0  0  0
 15 16  1  0  0  0  0
 15 44  1  0  0  0  0
 16 17  1  0  0  0  0
 16 28  2  0  0  0  0
 17 18  1  0  0  0  0
 17 27  2  0  0  0  0
 18 19  2  0  0  0  0
 18 45  1  0  0  0  0
 19 20  1  0  0  0  0
 19 46  1  0  0  0  0
 20 21  1  0  0  0  0
 20 26  2  0  0  0  0
 21 22  2  0  0  0  0
 21 23  1  0  0  0  0
 23 24  2  0  0  0  0
 24 25  1  0  0  0  0
 24 47  1  0  0  0  0
 25 26  1  0  0  0  0
 25 48  1  0  0  0  0
 26 27  1  0  0  0  0
 27 49  1  0  0  0  0
 28 29  1  0  0  0  0
 28 50  1  0  0  0  0
 29 51  1  0  0  0  0
 30 31  1  0  0  0  0
 30 52  1  0  0  0  0
 30 53  1  0  0  0  0
 31 32  1  0  0  0  0
 31 54  1  0  0  0  0
 31 55  1  0  0  0  0
 32 56  1  0  0  0  0
 32 57  1  0  0  0  0
 33 34  1  0  0  0  0
 33 58  1  0  0  0  0
 34 35  1  0  0  0  0
M  END
$$$$
