CHEMBL1988141
 OpenBabel04072215363D

 39 40  0  0  0  0  0  0  0  0999 V2000
    1.1575    0.3590   -0.1828 C   0  0  0  0  0  0  0  0  0  0  0  0
    2.6192   -0.0638   -0.1289 C   0  0  0  0  0  0  0  0  0  0  0  0
    2.9547   -1.0376   -1.2449 C   0  0  0  0  0  0  0  0  0  0  0  0
    2.1143   -1.3835   -2.0698 O   0  0  0  0  0  0  0  0  0  0  0  0
    4.2714   -1.4743   -1.1996 N   0  0  0  0  0  0  0  0  0  0  0  0
    4.8952   -2.2991   -2.1621 C   0  0  0  0  0  0  0  0  0  0  0  0
    4.3573   -2.4986   -3.4359 C   0  0  0  0  0  0  0  0  0  0  0  0
    4.9646   -3.3689   -4.3408 C   0  0  0  0  0  0  0  0  0  0  0  0
    6.0867   -4.1041   -3.9605 C   0  0  0  0  0  0  0  0  0  0  0  0
    6.6269   -5.1680   -4.8478 C   0  0  0  0  0  0  0  0  0  0  0  0
    7.8521   -5.2732   -4.9071 O   0  0  0  0  0  0  0  0  0  0  0  0
    5.7480   -5.9960   -5.5438 N   0  0  0  0  0  0  0  0  0  0  0  0
    6.2736   -6.9431   -6.5282 C   0  0  0  0  0  0  0  0  0  0  0  0
    5.3138   -7.1098   -7.7319 C   0  0  0  0  0  0  0  0  0  0  0  0
    3.8886   -7.2986   -7.3830 N   0  0  0  0  0  0  0  0  0  0  0  0
    3.4691   -6.2676   -6.4159 C   0  0  0  0  0  0  0  0  0  0  0  0
    4.3566   -6.2723   -5.1635 C   0  0  0  0  0  0  0  0  0  0  0  0
    6.7010   -3.8123   -2.7368 C   0  0  0  0  0  0  0  0  0  0  0  0
    7.8913   -4.3750   -2.3565 O   0  0  0  0  0  0  0  0  0  0  0  0
    6.1074   -2.9196   -1.8377 C   0  0  0  0  0  0  0  0  0  0  0  0
    0.9348    1.0852    0.6040 H   0  0  0  0  0  0  0  0  0  0  0  0
    0.4965   -0.5051   -0.0507 H   0  0  0  0  0  0  0  0  0  0  0  0
    0.9150    0.8160   -1.1490 H   0  0  0  0  0  0  0  0  0  0  0  0
    2.8319   -0.5339    0.8356 H   0  0  0  0  0  0  0  0  0  0  0  0
    3.2583    0.8190   -0.2400 H   0  0  0  0  0  0  0  0  0  0  0  0
    4.7924   -1.2938   -0.3481 H   0  0  0  0  0  0  0  0  0  0  0  0
    3.4533   -1.9935   -3.7597 H   0  0  0  0  0  0  0  0  0  0  0  0
    4.5236   -3.4928   -5.3263 H   0  0  0  0  0  0  0  0  0  0  0  0
    6.4003   -7.9045   -6.0155 H   0  0  0  0  0  0  0  0  0  0  0  0
    7.2589   -6.6246   -6.8852 H   0  0  0  0  0  0  0  0  0  0  0  0
    5.6352   -7.9678   -8.3334 H   0  0  0  0  0  0  0  0  0  0  0  0
    5.3909   -6.2283   -8.3787 H   0  0  0  0  0  0  0  0  0  0  0  0
    3.7819   -8.2113   -6.9409 H   0  0  0  0  0  0  0  0  0  0  0  0
    2.4253   -6.4472   -6.1284 H   0  0  0  0  0  0  0  0  0  0  0  0
    3.4988   -5.2832   -6.8989 H   0  0  0  0  0  0  0  0  0  0  0  0
    4.3452   -7.2651   -4.6935 H   0  0  0  0  0  0  0  0  0  0  0  0
    3.9712   -5.5895   -4.4087 H   0  0  0  0  0  0  0  0  0  0  0  0
    8.2925   -4.7844   -3.1570 H   0  0  0  0  0  0  0  0  0  0  0  0
    6.5898   -2.7482   -0.8802 H   0  0  0  0  0  0  0  0  0  0  0  0
  1  2  1  0  0  0  0
  1 21  1  0  0  0  0
  1 22  1  0  0  0  0
  1 23  1  0  0  0  0
  2  3  1  0  0  0  0
  2 24  1  0  0  0  0
  2 25  1  0  0  0  0
  3  4  2  0  0  0  0
  3  5  1  0  0  0  0
  5  6  1  0  0  0  0
  5 26  1  0  0  0  0
  6  7  1  0  0  0  0
  6 20  2  0  0  0  0
  7  8  2  0  0  0  0
  7 27  1  0  0  0  0
  8  9  1  0  0  0  0
  8 28  1  0  0  0  0
  9 10  1  0  0  0  0
  9 18  2  0  0  0  0
 10 11  2  0  0  0  0
 10 12  1  0  0  0  0
 12 13  1  0  0  0  0
 12 17  1  0  0  0  0
 13 14  1  0  0  0  0
 13 29  1  0  0  0  0
 13 30  1  0  0  0  0
 14 15  1  0  0  0  0
 14 31  1  0  0  0  0
 14 32  1  0  0  0  0
 15 16  1  0  0  0  0
 15 33  1  0  0  0  0
 16 17  1  0  0  0  0
 16 34  1  0  0  0  0
 16 35  1  0  0  0  0
 17 36  1  0  0  0  0
 17 37  1  0  0  0  0
 18 19  1  0  0  0  0
 18 20  1  0  0  0  0
 19 38  1  0  0  0  0
 20 39  1  0  0  0  0
M  END
$$$$
