CHEMBL3323592
 OpenBabel04072215363D

 42 46  0  0  0  0  0  0  0  0999 V2000
    1.2274    0.4809    0.1691 C   0  0  0  0  0  0  0  0  0  0  0  0
    0.5677    1.4171   -0.6057 C   0  0  0  0  0  0  0  0  0  0  0  0
   -0.8257    1.2966   -0.8745 C   0  0  0  0  0  0  0  0  0  0  0  0
   -1.6487    0.2582   -0.3970 C   0  0  0  0  0  0  0  0  0  0  0  0
   -3.2031    0.2665   -0.6510 C   0  0  0  0  0  0  0  0  0  0  0  0
   -4.0379    1.1255   -1.2792 N   0  0  0  0  0  0  0  0  0  0  0  0
   -5.3929    0.6822   -1.0433 C   0  0  0  0  0  0  0  0  0  0  0  0
   -6.7115    1.1438   -1.3778 C   0  0  0  0  0  0  0  0  0  0  0  0
   -7.9069    0.6220   -0.7596 C   0  0  0  0  0  0  0  0  0  0  0  0
   -7.8937   -0.3909    0.1626 C   0  0  0  0  0  0  0  0  0  0  0  0
   -9.1363   -0.7773    0.8299 N   0  0  0  0  0  0  0  0  0  0  0  0
  -10.6306   -0.6049    1.1108 C   0  0  0  0  0  0  0  0  0  0  0  0
  -11.9181    0.3596    0.5827 C   0  0  0  0  0  0  0  0  0  0  0  0
  -13.2339    0.3821    1.0522 C   0  0  0  0  0  0  0  0  0  0  0  0
  -12.7549   -0.5708    1.7355 N   0  0  0  0  0  0  0  0  0  0  0  0
  -12.3369   -1.5471    2.4529 C   0  0  0  0  0  0  0  0  0  0  0  0
  -13.1099   -2.1457    3.3883 C   0  0  0  0  0  0  0  0  0  0  0  0
  -12.4640   -3.0650    4.1523 C   0  0  0  0  0  0  0  0  0  0  0  0
  -11.1172   -3.3684    3.8896 C   0  0  0  0  0  0  0  0  0  0  0  0
  -10.3906   -2.7038    2.8765 C   0  0  0  0  0  0  0  0  0  0  0  0
  -11.0231   -1.6608    2.1346 C   0  0  0  0  0  0  0  0  0  0  0  0
   -6.5781   -1.0367    0.3356 C   0  0  0  0  0  0  0  0  0  0  0  0
   -5.3668   -0.4586   -0.2564 C   0  0  0  0  0  0  0  0  0  0  0  0
   -4.0128   -0.7948   -0.2585 N   0  0  0  0  0  0  0  0  0  0  0  0
   -0.9061   -0.7584    0.2849 C   0  0  0  0  0  0  0  0  0  0  0  0
    0.4934   -0.6202    0.5982 C   0  0  0  0  0  0  0  0  0  0  0  0
    2.2892    0.5992    0.3998 H   0  0  0  0  0  0  0  0  0  0  0  0
    1.1234    2.2661   -1.0047 H   0  0  0  0  0  0  0  0  0  0  0  0
   -1.2409    2.0575   -1.5196 H   0  0  0  0  0  0  0  0  0  0  0  0
   -6.8834    1.9533   -2.0808 H   0  0  0  0  0  0  0  0  0  0  0  0
   -8.8825    1.0497   -0.9557 H   0  0  0  0  0  0  0  0  0  0  0  0
   -8.7947   -1.2472    1.6711 H   0  0  0  0  0  0  0  0  0  0  0  0
  -11.9057    1.0791   -0.2392 H   0  0  0  0  0  0  0  0  0  0  0  0
  -14.2141    0.3008    1.5150 H   0  0  0  0  0  0  0  0  0  0  0  0
  -14.1237   -1.7935    3.5165 H   0  0  0  0  0  0  0  0  0  0  0  0
  -13.0192   -3.5028    4.9656 H   0  0  0  0  0  0  0  0  0  0  0  0
  -10.6287   -4.1023    4.5199 H   0  0  0  0  0  0  0  0  0  0  0  0
   -9.3523   -2.9855    2.7115 H   0  0  0  0  0  0  0  0  0  0  0  0
   -6.4080   -1.9274    0.9431 H   0  0  0  0  0  0  0  0  0  0  0  0
   -3.6166   -1.6688    0.0244 H   0  0  0  0  0  0  0  0  0  0  0  0
   -1.3443   -1.7210    0.5527 H   0  0  0  0  0  0  0  0  0  0  0  0
    1.0266   -1.3757    1.1800 H   0  0  0  0  0  0  0  0  0  0  0  0
  1  2  1  0  0  0  0
  1 26  2  0  0  0  0
  1 27  1  0  0  0  0
  2  3  2  0  0  0  0
  2 28  1  0  0  0  0
  3  4  1  0  0  0  0
  3 29  1  0  0  0  0
  4  5  1  0  0  0  0
  4 25  2  0  0  0  0
  5  6  2  0  0  0  0
  5 24  1  0  0  0  0
  6  7  1  0  0  0  0
  7  8  1  0  0  0  0
  7 23  2  0  0  0  0
  8  9  2  0  0  0  0
  8 30  1  0  0  0  0
  9 10  1  0  0  0  0
  9 31  1  0  0  0  0
 10 11  1  0  0  0  0
 10 22  2  0  0  0  0
 11 12  1  0  0  0  0
 11 32  1  0  0  0  0
 12 13  1  0  0  0  0
 12 21  2  0  0  0  0
 13 14  2  0  0  0  0
 13 33  1  0  0  0  0
 14 15  1  0  0  0  0
 14 34  1  0  0  0  0
 15 16  2  0  0  0  0
 16 17  1  0  0  0  0
 16 21  1  0  0  0  0
 17 18  2  0  0  0  0
 17 35  1  0  0  0  0
 18 19  1  0  0  0  0
 18 36  1  0  0  0  0
 19 20  2  0  0  0  0
 19 37  1  0  0  0  0
 20 21  1  0  0  0  0
 20 38  1  0  0  0  0
 22 23  1  0  0  0  0
 22 39  1  0  0  0  0
 23 24  1  0  0  0  0
 24 40  1  0  0  0  0
 25 26  1  0  0  0  0
 25 41  1  0  0  0  0
 26 42  1  0  0  0  0
M  END
$$$$
