CHEMBL202162
 OpenBabel04072215363D

 60 64  0  0  0  0  0  0  0  0999 V2000
    0.6507   -0.3544    0.3388 C   0  0  0  0  0  0  0  0  0  0  0  0
    2.1583   -0.3522    0.5765 C   0  0  0  0  0  0  0  0  0  0  0  0
    2.7367   -1.6661    0.9076 N   0  0  0  0  0  0  0  0  0  0  0  0
    2.4282   -2.7213   -0.0696 C   0  0  0  0  0  0  0  0  0  0  0  0
    3.0529   -2.5603   -1.4513 C   0  0  0  0  0  0  0  0  0  0  0  0
    4.1796   -1.5108    1.1947 C   0  0  0  0  0  0  0  0  0  0  0  0
    4.8677   -2.7670    1.7535 C   0  0  0  0  0  0  0  0  0  0  0  0
    6.1771   -2.4202    2.2026 O   0  0  0  0  0  0  0  0  0  0  0  0
    6.9570   -3.3370    2.8686 C   0  0  0  0  0  0  0  0  0  0  0  0
    8.1236   -2.7628    3.5027 C   0  0  0  0  0  0  0  0  0  0  0  0
    8.3410   -1.3038    3.4410 C   0  0  0  0  0  0  0  0  0  0  0  0
    8.3702   -0.5755    4.4052 O   0  0  0  0  0  0  0  0  0  0  0  0
    8.5353   -0.9186    2.1399 O   0  0  0  0  0  0  0  0  0  0  0  0
    8.8796    0.4654    2.0027 C   0  0  0  0  0  0  0  0  0  0  0  0
    8.9333   -3.5634    4.3710 C   0  0  0  0  0  0  0  0  0  0  0  0
    9.9224   -3.4354    5.4144 C   0  0  0  0  0  0  0  0  0  0  0  0
   10.1274   -4.7376    5.8647 C   0  0  0  0  0  0  0  0  0  0  0  0
    9.4943   -5.6178    5.0891 O   0  0  0  0  0  0  0  0  0  0  0  0
    8.7296   -4.9057    4.2255 C   0  0  0  0  0  0  0  0  0  0  0  0
    7.7165   -5.5269    3.4720 C   0  0  0  0  0  0  0  0  0  0  0  0
    7.6702   -6.9262    3.5224 C   0  0  0  0  0  0  0  0  0  0  0  0
    6.4650   -7.5333    3.7616 C   0  0  0  0  0  0  0  0  0  0  0  0
    5.3384   -6.8267    3.4019 C   0  0  0  0  0  0  0  0  0  0  0  0
    5.4518   -5.5115    2.8915 C   0  0  0  0  0  0  0  0  0  0  0  0
    6.6573   -4.7422    3.0317 C   0  0  0  0  0  0  0  0  0  0  0  0
   10.8827   -5.1949    6.9958 C   0  0  0  0  0  0  0  0  0  0  0  0
   10.8755   -6.3534    7.4317 O   0  0  0  0  0  0  0  0  0  0  0  0
   11.6997   -4.1552    7.6589 C   0  0  0  0  0  0  0  0  0  0  0  0
   12.5625   -4.5528    8.6867 C   0  0  0  0  0  0  0  0  0  0  0  0
   13.4080   -3.6064    9.2494 C   0  0  0  0  0  0  0  0  0  0  0  0
   13.3584   -2.2832    8.8146 C   0  0  0  0  0  0  0  0  0  0  0  0
   12.4492   -1.8850    7.8220 C   0  0  0  0  0  0  0  0  0  0  0  0
   11.5961   -2.8318    7.2340 C   0  0  0  0  0  0  0  0  0  0  0  0
   10.6481   -2.3983    6.1362 C   0  0  0  0  0  0  0  0  0  0  0  0
   10.5675   -1.2088    5.8604 O   0  0  0  0  0  0  0  0  0  0  0  0
    0.2785    0.6751    0.3020 H   0  0  0  0  0  0  0  0  0  0  0  0
    0.1199   -0.8730    1.1439 H   0  0  0  0  0  0  0  0  0  0  0  0
    0.3923   -0.8265   -0.6139 H   0  0  0  0  0  0  0  0  0  0  0  0
    2.3429    0.3268    1.4198 H   0  0  0  0  0  0  0  0  0  0  0  0
    2.6503    0.0922   -0.2923 H   0  0  0  0  0  0  0  0  0  0  0  0
    1.3415   -2.8143   -0.1815 H   0  0  0  0  0  0  0  0  0  0  0  0
    2.7249   -3.6941    0.3420 H   0  0  0  0  0  0  0  0  0  0  0  0
    2.9101   -1.5542   -1.8548 H   0  0  0  0  0  0  0  0  0  0  0  0
    2.5875   -3.2614   -2.1528 H   0  0  0  0  0  0  0  0  0  0  0  0
    4.1260   -2.7739   -1.4289 H   0  0  0  0  0  0  0  0  0  0  0  0
    4.3023   -0.7274    1.9556 H   0  0  0  0  0  0  0  0  0  0  0  0
    4.7294   -1.1508    0.3153 H   0  0  0  0  0  0  0  0  0  0  0  0
    4.9342   -3.5320    0.9721 H   0  0  0  0  0  0  0  0  0  0  0  0
    4.2775   -3.1022    2.6100 H   0  0  0  0  0  0  0  0  0  0  0  0
    8.9262    0.7113    0.9385 H   0  0  0  0  0  0  0  0  0  0  0  0
    9.8688    0.6380    2.4377 H   0  0  0  0  0  0  0  0  0  0  0  0
    8.1358    1.1161    2.4714 H   0  0  0  0  0  0  0  0  0  0  0  0
    8.5397   -7.5139    3.2341 H   0  0  0  0  0  0  0  0  0  0  0  0
    6.4277   -8.5426    4.1589 H   0  0  0  0  0  0  0  0  0  0  0  0
    4.3666   -7.3059    3.4810 H   0  0  0  0  0  0  0  0  0  0  0  0
    4.5267   -5.0902    2.5272 H   0  0  0  0  0  0  0  0  0  0  0  0
   12.6080   -5.5893    9.0218 H   0  0  0  0  0  0  0  0  0  0  0  0
   14.1200   -3.9025   10.0190 H   0  0  0  0  0  0  0  0  0  0  0  0
   14.0383   -1.5482    9.2387 H   0  0  0  0  0  0  0  0  0  0  0  0
   12.4193   -0.8542    7.5025 H   0  0  0  0  0  0  0  0  0  0  0  0
  1  2  1  0  0  0  0
  1 36  1  0  0  0  0
  1 37  1  0  0  0  0
  1 38  1  0  0  0  0
  2  3  1  0  0  0  0
  2 39  1  0  0  0  0
  2 40  1  0  0  0  0
  3  4  1  0  0  0  0
  3  6  1  0  0  0  0
  4  5  1  0  0  0  0
  4 41  1  0  0  0  0
  4 42  1  0  0  0  0
  5 43  1  0  0  0  0
  5 44  1  0  0  0  0
  5 45  1  0  0  0  0
  6  7  1  0  0  0  0
  6 46  1  0  0  0  0
  6 47  1  0  0  0  0
  7  8  1  0  0  0  0
  7 48  1  0  0  0  0
  7 49  1  0  0  0  0
  8  9  1  0  0  0  0
  9 10  1  0  0  0  0
  9 25  2  0  0  0  0
 10 11  1  0  0  0  0
 10 15  2  0  0  0  0
 11 12  2  0  0  0  0
 11 13  1  0  0  0  0
 13 14  1  0  0  0  0
 14 50  1  0  0  0  0
 14 51  1  0  0  0  0
 14 52  1  0  0  0  0
 15 16  1  0  0  0  0
 15 19  1  0  0  0  0
 16 17  2  0  0  0  0
 16 34  1  0  0  0  0
 17 18  1  0  0  0  0
 17 26  1  0  0  0  0
 18 19  1  0  0  0  0
 19 20  2  0  0  0  0
 20 21  1  0  0  0  0
 20 25  1  0  0  0  0
 21 22  2  0  0  0  0
 21 53  1  0  0  0  0
 22 23  1  0  0  0  0
 22 54  1  0  0  0  0
 23 24  2  0  0  0  0
 23 55  1  0  0  0  0
 24 25  1  0  0  0  0
 24 56  1  0  0  0  0
 26 27  2  0  0  0  0
 26 28  1  0  0  0  0
 28 29  1  0  0  0  0
 28 33  2  0  0  0  0
 29 30  2  0  0  0  0
 29 57  1  0  0  0  0
 30 31  1  0  0  0  0
 30 58  1  0  0  0  0
 31 32  2  0  0  0  0
 31 59  1  0  0  0  0
 32 33  1  0  0  0  0
 32 60  1  0  0  0  0
 33 34  1  0  0  0  0
 34 35  2  0  0  0  0
M  END
$$$$
