CHEMBL3577124
 OpenBabel04072215363D

 60 62  0  0  0  0  0  0  0  0999 V2000
    3.6249   -2.7620   -0.9049 C   0  0  0  0  0  0  0  0  0  0  0  0
    3.3231   -1.3513   -0.9656 N   0  0  0  0  0  0  0  0  0  0  0  0
    4.1876   -0.5820   -1.7231 C   0  0  0  0  0  0  0  0  0  0  0  0
    4.8369   -1.1214   -2.7607 N   0  0  0  0  0  0  0  0  0  0  0  0
    5.6417   -0.3036   -3.4483 C   0  0  0  0  0  0  0  0  0  0  0  0
    5.8105    1.0298   -3.1351 C   0  0  0  0  0  0  0  0  0  0  0  0
    6.6658    1.8934   -3.8431 C   0  0  0  0  0  0  0  0  0  0  0  0
    6.7382    3.2608   -3.5597 C   0  0  0  0  0  0  0  0  0  0  0  0
    7.6344    4.1530   -4.3745 C   0  0  0  0  0  0  0  0  0  0  0  0
    8.3669    5.1641   -3.7104 C   0  0  0  0  0  0  0  0  0  0  0  0
    9.1479    6.1244   -4.3667 C   0  0  0  0  0  0  0  0  0  0  0  0
    9.7426    7.2337   -3.7063 N   0  0  0  0  0  0  0  0  0  0  0  0
    9.8921    7.3610   -2.3499 C   0  0  0  0  0  0  0  0  0  0  0  0
    9.6152    6.4889   -1.5259 O   0  0  0  0  0  0  0  0  0  0  0  0
   10.3845    8.5890   -1.9490 N   0  0  0  0  0  0  0  0  0  0  0  0
   10.7134    8.7157   -0.5392 C   0  0  0  0  0  0  0  0  0  0  0  0
   10.7479   10.1480   -0.0060 C   0  0  0  0  0  0  0  0  0  0  0  0
   10.9472   10.2284    1.5406 C   0  0  0  0  0  0  0  0  0  0  0  0
   12.3010    9.6265    1.9588 C   0  0  0  0  0  0  0  0  0  0  0  0
   10.9167   11.7025    1.9861 C   0  0  0  0  0  0  0  0  0  0  0  0
    9.8195    9.4868    2.2856 C   0  0  0  0  0  0  0  0  0  0  0  0
    9.3112    5.9900   -5.7372 C   0  0  0  0  0  0  0  0  0  0  0  0
   10.0984    6.8456   -6.4071 F   0  0  0  0  0  0  0  0  0  0  0  0
    8.6894    4.9567   -6.4319 C   0  0  0  0  0  0  0  0  0  0  0  0
    7.8131    4.0585   -5.7820 C   0  0  0  0  0  0  0  0  0  0  0  0
    7.1030    3.0609   -6.6649 C   0  0  0  0  0  0  0  0  0  0  0  0
    5.9346    3.6629   -2.4732 C   0  0  0  0  0  0  0  0  0  0  0  0
    5.8311    5.0677   -1.9417 C   0  0  0  0  0  0  0  0  0  0  0  0
    5.1634    2.7923   -1.7400 N   0  0  0  0  0  0  0  0  0  0  0  0
    5.0852    1.5028   -2.0658 C   0  0  0  0  0  0  0  0  0  0  0  0
    4.3002    0.6967   -1.3513 N   0  0  0  0  0  0  0  0  0  0  0  0
    2.8966   -3.2549   -0.2530 H   0  0  0  0  0  0  0  0  0  0  0  0
    4.6221   -2.9452   -0.4904 H   0  0  0  0  0  0  0  0  0  0  0  0
    3.5485   -3.2361   -1.8897 H   0  0  0  0  0  0  0  0  0  0  0  0
    3.2154   -0.8751   -0.0767 H   0  0  0  0  0  0  0  0  0  0  0  0
    6.1447   -0.7627   -4.2942 H   0  0  0  0  0  0  0  0  0  0  0  0
    7.2846    1.4489   -4.6124 H   0  0  0  0  0  0  0  0  0  0  0  0
    8.2814    5.2153   -2.6300 H   0  0  0  0  0  0  0  0  0  0  0  0
   10.1477    7.9447   -4.3013 H   0  0  0  0  0  0  0  0  0  0  0  0
   10.9572    9.0918   -2.6101 H   0  0  0  0  0  0  0  0  0  0  0  0
   11.6784    8.2178   -0.3973 H   0  0  0  0  0  0  0  0  0  0  0  0
    9.9647    8.1497    0.0200 H   0  0  0  0  0  0  0  0  0  0  0  0
    9.8068   10.6466   -0.2742 H   0  0  0  0  0  0  0  0  0  0  0  0
   11.5440   10.7071   -0.5161 H   0  0  0  0  0  0  0  0  0  0  0  0
   13.1341   10.1682    1.4973 H   0  0  0  0  0  0  0  0  0  0  0  0
   12.3866    8.5727    1.6768 H   0  0  0  0  0  0  0  0  0  0  0  0
   12.4339    9.6765    3.0459 H   0  0  0  0  0  0  0  0  0  0  0  0
   11.7393   12.2726    1.5414 H   0  0  0  0  0  0  0  0  0  0  0  0
   11.0098   11.7841    3.0762 H   0  0  0  0  0  0  0  0  0  0  0  0
    9.9762   12.1855    1.6996 H   0  0  0  0  0  0  0  0  0  0  0  0
    9.8168    8.4139    2.0709 H   0  0  0  0  0  0  0  0  0  0  0  0
    8.8379    9.8900    2.0133 H   0  0  0  0  0  0  0  0  0  0  0  0
    9.9322    9.5830    3.3712 H   0  0  0  0  0  0  0  0  0  0  0  0
    8.8779    4.8713   -7.4995 H   0  0  0  0  0  0  0  0  0  0  0  0
    7.2977    3.2521   -7.7260 H   0  0  0  0  0  0  0  0  0  0  0  0
    6.0201    3.1199   -6.5203 H   0  0  0  0  0  0  0  0  0  0  0  0
    7.4586    2.0434   -6.4903 H   0  0  0  0  0  0  0  0  0  0  0  0
    6.1943    5.8360   -2.6248 H   0  0  0  0  0  0  0  0  0  0  0  0
    6.3792    5.1413   -0.9940 H   0  0  0  0  0  0  0  0  0  0  0  0
    4.7823    5.3156   -1.7489 H   0  0  0  0  0  0  0  0  0  0  0  0
  1  2  1  0  0  0  0
  1 32  1  0  0  0  0
  1 33  1  0  0  0  0
  1 34  1  0  0  0  0
  2  3  1  0  0  0  0
  2 35  1  0  0  0  0
  3  4  1  0  0  0  0
  3 31  2  0  0  0  0
  4  5  2  0  0  0  0
  5  6  1  0  0  0  0
  5 36  1  0  0  0  0
  6  7  1  0  0  0  0
  6 30  2  0  0  0  0
  7  8  2  0  0  0  0
  7 37  1  0  0  0  0
  8  9  1  0  0  0  0
  8 27  1  0  0  0  0
  9 10  1  0  0  0  0
  9 25  2  0  0  0  0
 10 11  2  0  0  0  0
 10 38  1  0  0  0  0
 11 12  1  0  0  0  0
 11 22  1  0  0  0  0
 12 13  1  0  0  0  0
 12 39  1  0  0  0  0
 13 14  2  0  0  0  0
 13 15  1  0  0  0  0
 15 16  1  0  0  0  0
 15 40  1  0  0  0  0
 16 17  1  0  0  0  0
 16 41  1  0  0  0  0
 16 42  1  0  0  0  0
 17 18  1  0  0  0  0
 17 43  1  0  0  0  0
 17 44  1  0  0  0  0
 18 19  1  0  0  0  0
 18 20  1  0  0  0  0
 18 21  1  0  0  0  0
 19 45  1  0  0  0  0
 19 46  1  0  0  0  0
 19 47  1  0  0  0  0
 20 48  1  0  0  0  0
 20 49  1  0  0  0  0
 20 50  1  0  0  0  0
 21 51  1  0  0  0  0
 21 52  1  0  0  0  0
 21 53  1  0  0  0  0
 22 23  1  0  0  0  0
 22 24  2  0  0  0  0
 24 25  1  0  0  0  0
 24 54  1  0  0  0  0
 25 26  1  0  0  0  0
 26 55  1  0  0  0  0
 26 56  1  0  0  0  0
 26 57  1  0  0  0  0
 27 28  1  0  0  0  0
 27 29  2  0  0  0  0
 28 58  1  0  0  0  0
 28 59  1  0  0  0  0
 28 60  1  0  0  0  0
 29 30  1  0  0  0  0
 30 31  1  0  0  0  0
M  END
$$$$
