CHEMBL188431
 OpenBabel04072215363D

 84 87  0  0  1  0  0  0  0  0999 V2000
    1.0292   -0.5224    0.2509 C   0  0  0  0  0  0  0  0  0  0  0  0
    2.2854    0.0018   -0.1569 O   0  0  0  0  0  0  0  0  0  0  0  0
    2.9659    0.7348    0.7765 C   0  0  0  0  0  0  0  0  0  0  0  0
    2.5119    1.0487    2.0579 C   0  0  0  0  0  0  0  0  0  0  0  0
    3.3108    1.7852    2.9346 C   0  0  0  0  0  0  0  0  0  0  0  0
    2.9922    2.0947    4.2299 O   0  0  0  0  0  0  0  0  0  0  0  0
    1.7793    1.5429    4.7293 C   0  0  0  0  0  0  0  0  0  0  0  0
    4.5616    2.2314    2.5134 C   0  0  0  0  0  0  0  0  0  0  0  0
    5.0499    1.8892    1.2437 C   0  0  0  0  0  0  0  0  0  0  0  0
    6.4811    2.2080    0.8314 C   0  0  3  0  0  0  0  0  0  0  0  0
    7.4510    1.5173    1.7948 C   0  0  0  0  0  0  0  0  0  0  0  0
    8.2083    2.4466    2.6806 C   0  0  0  0  0  0  0  0  0  0  0  0
    9.0213    1.9295    3.6804 C   0  0  0  0  0  0  0  0  0  0  0  0
    9.7984    2.6822    4.4859 N   0  0  0  0  0  0  0  0  0  0  0  0
    9.7683    4.0181    4.3379 C   0  0  0  0  0  0  0  0  0  0  0  0
   10.6441    4.7999    5.1433 N   0  0  0  0  0  0  0  0  0  0  0  0
   12.0678    4.4317    5.2809 C   0  0  0  0  0  0  0  0  0  0  0  0
   12.6781    3.3878    4.3429 C   0  0  0  0  0  0  0  0  0  0  0  0
   14.1835    3.2054    4.5587 C   0  0  0  0  0  0  0  0  0  0  0  0
   14.4163    2.8006    5.9054 O   0  0  0  0  0  0  0  0  0  0  0  0
   15.7864    2.4879    6.1524 C   0  0  0  0  0  0  0  0  0  0  0  0
   16.0097    2.0414    7.5793 C   0  0  0  0  0  0  0  0  0  0  0  0
   14.9751    1.9644    8.5224 C   0  0  0  0  0  0  0  0  0  0  0  0
   15.2295    1.5262    9.8254 C   0  0  0  0  0  0  0  0  0  0  0  0
   16.5203    1.1610   10.2013 C   0  0  0  0  0  0  0  0  0  0  0  0
   17.5599    1.2398    9.2774 C   0  0  0  0  0  0  0  0  0  0  0  0
   17.3075    1.6784    7.9779 C   0  0  0  0  0  0  0  0  0  0  0  0
   10.2275    5.7786    6.0465 C   0  0  0  0  0  0  0  0  0  0  0  0
    8.7752    6.1444    6.2107 C   0  0  0  0  0  0  0  0  0  0  0  0
   11.0370    6.3675    6.7780 O   0  0  0  0  0  0  0  0  0  0  0  0
    8.9662    4.6146    3.3631 C   0  0  0  0  0  0  0  0  0  0  0  0
    8.1697    3.8197    2.5072 C   0  0  0  0  0  0  0  0  0  0  0  0
    7.4122    4.4438    1.4789 N   0  0  0  0  0  0  0  0  0  0  0  0
    6.6874    3.7206    0.6837 C   0  0  0  0  0  0  0  0  0  0  0  0
    6.0071    4.3742   -0.3503 N   0  0  0  0  0  0  0  0  0  0  0  0
    5.6389    3.8034   -1.5613 C   0  0  0  0  0  0  0  0  0  0  0  0
    5.9652    2.6730   -1.8879 O   0  0  0  0  0  0  0  0  0  0  0  0
    4.9321    4.6153   -2.4191 N   0  0  0  0  0  0  0  0  0  0  0  0
    4.5157    4.1413   -3.7701 C   0  0  0  0  0  0  0  0  0  0  0  0
    3.5560    2.9337   -3.6924 C   0  0  0  0  0  0  0  0  0  0  0  0
    3.7813    5.2692   -4.5215 C   0  0  0  0  0  0  0  0  0  0  0  0
    5.7429    3.7497   -4.6211 C   0  0  0  0  0  0  0  0  0  0  0  0
    4.2302    1.1559    0.3758 C   0  0  0  0  0  0  0  0  0  0  0  0
    0.6255   -1.1127   -0.5754 H   0  0  0  0  0  0  0  0  0  0  0  0
    0.3230    0.2868    0.4641 H   0  0  0  0  0  0  0  0  0  0  0  0
    1.1414   -1.1879    1.1140 H   0  0  0  0  0  0  0  0  0  0  0  0
    1.5380    0.7071    2.3784 H   0  0  0  0  0  0  0  0  0  0  0  0
    1.7363    1.7313    5.8053 H   0  0  0  0  0  0  0  0  0  0  0  0
    1.7369    0.4568    4.5876 H   0  0  0  0  0  0  0  0  0  0  0  0
    0.9206    2.0349    4.2614 H   0  0  0  0  0  0  0  0  0  0  0  0
    5.1755    2.8069    3.2037 H   0  0  0  0  0  0  0  0  0  0  0  0
    6.6802    1.7235   -0.1234 H   0  0  0  0  0  0  0  0  0  0  0  0
    8.1754    0.9433    1.2006 H   0  0  0  0  0  0  0  0  0  0  0  0
    6.9282    0.7734    2.4126 H   0  0  0  0  0  0  0  0  0  0  0  0
    9.0824    0.8623    3.8548 H   0  0  0  0  0  0  0  0  0  0  0  0
   12.2431    4.1516    6.3279 H   0  0  0  0  0  0  0  0  0  0  0  0
   12.6234    5.3692    5.1249 H   0  0  0  0  0  0  0  0  0  0  0  0
   12.4940    3.6625    3.2992 H   0  0  0  0  0  0  0  0  0  0  0  0
   12.2115    2.4187    4.5361 H   0  0  0  0  0  0  0  0  0  0  0  0
   14.7320    4.1309    4.3485 H   0  0  0  0  0  0  0  0  0  0  0  0
   14.5444    2.4249    3.8778 H   0  0  0  0  0  0  0  0  0  0  0  0
   16.4005    3.3748    5.9553 H   0  0  0  0  0  0  0  0  0  0  0  0
   16.0930    1.6754    5.4834 H   0  0  0  0  0  0  0  0  0  0  0  0
   13.9596    2.2448    8.2490 H   0  0  0  0  0  0  0  0  0  0  0  0
   14.4160    1.4700   10.5438 H   0  0  0  0  0  0  0  0  0  0  0  0
   16.7152    0.8173   11.2141 H   0  0  0  0  0  0  0  0  0  0  0  0
   18.5689    0.9567    9.5680 H   0  0  0  0  0  0  0  0  0  0  0  0
   18.1295    1.7357    7.2684 H   0  0  0  0  0  0  0  0  0  0  0  0
    8.0801    5.6032    5.5765 H   0  0  0  0  0  0  0  0  0  0  0  0
    8.6797    7.2166    6.0099 H   0  0  0  0  0  0  0  0  0  0  0  0
    8.4911    5.9625    7.2534 H   0  0  0  0  0  0  0  0  0  0  0  0
    8.9823    5.6821    3.2123 H   0  0  0  0  0  0  0  0  0  0  0  0
    6.0759    5.3785   -0.3230 H   0  0  0  0  0  0  0  0  0  0  0  0
    4.5799    5.5008   -2.0895 H   0  0  0  0  0  0  0  0  0  0  0  0
    2.6022    3.2081   -3.2289 H   0  0  0  0  0  0  0  0  0  0  0  0
    3.9701    2.1006   -3.1180 H   0  0  0  0  0  0  0  0  0  0  0  0
    3.3369    2.5453   -4.6955 H   0  0  0  0  0  0  0  0  0  0  0  0
    2.8917    5.6039   -3.9767 H   0  0  0  0  0  0  0  0  0  0  0  0
    3.4530    4.9314   -5.5135 H   0  0  0  0  0  0  0  0  0  0  0  0
    4.4293    6.1402   -4.6684 H   0  0  0  0  0  0  0  0  0  0  0  0
    6.3173    2.9309   -4.1799 H   0  0  0  0  0  0  0  0  0  0  0  0
    6.4245    4.5983   -4.7427 H   0  0  0  0  0  0  0  0  0  0  0  0
    5.4395    3.4133   -5.6195 H   0  0  0  0  0  0  0  0  0  0  0  0
    4.5852    0.8840   -0.6176 H   0  0  0  0  0  0  0  0  0  0  0  0
  1  2  1  0  0  0  0
  1 44  1  0  0  0  0
  1 45  1  0  0  0  0
  1 46  1  0  0  0  0
  2  3  1  0  0  0  0
  3  4  1  0  0  0  0
  3 43  2  0  0  0  0
  4  5  2  0  0  0  0
  4 47  1  0  0  0  0
  5  6  1  0  0  0  0
  5  8  1  0  0  0  0
  6  7  1  0  0  0  0
  7 48  1  0  0  0  0
  7 49  1  0  0  0  0
  7 50  1  0  0  0  0
  8  9  2  0  0  0  0
  8 51  1  0  0  0  0
  9 10  1  0  0  0  0
  9 43  1  0  0  0  0
 10 11  1  0  0  0  0
 10 34  1  0  0  0  0
 10 52  1  0  0  0  0
 11 12  1  0  0  0  0
 11 53  1  0  0  0  0
 11 54  1  0  0  0  0
 12 13  1  0  0  0  0
 12 32  2  0  0  0  0
 13 14  2  0  0  0  0
 13 55  1  0  0  0  0
 14 15  1  0  0  0  0
 15 16  1  0  0  0  0
 15 31  2  0  0  0  0
 16 17  1  0  0  0  0
 16 28  1  0  0  0  0
 17 18  1  0  0  0  0
 17 56  1  0  0  0  0
 17 57  1  0  0  0  0
 18 19  1  0  0  0  0
 18 58  1  0  0  0  0
 18 59  1  0  0  0  0
 19 20  1  0  0  0  0
 19 60  1  0  0  0  0
 19 61  1  0  0  0  0
 20 21  1  0  0  0  0
 21 22  1  0  0  0  0
 21 62  1  0  0  0  0
 21 63  1  0  0  0  0
 22 23  1  0  0  0  0
 22 27  2  0  0  0  0
 23 24  2  0  0  0  0
 23 64  1  0  0  0  0
 24 25  1  0  0  0  0
 24 65  1  0  0  0  0
 25 26  2  0  0  0  0
 25 66  1  0  0  0  0
 26 27  1  0  0  0  0
 26 67  1  0  0  0  0
 27 68  1  0  0  0  0
 28 29  1  0  0  0  0
 28 30  2  0  0  0  0
 29 69  1  0  0  0  0
 29 70  1  0  0  0  0
 29 71  1  0  0  0  0
 31 32  1  0  0  0  0
 31 72  1  0  0  0  0
 32 33  1  0  0  0  0
 33 34  2  0  0  0  0
 34 35  1  0  0  0  0
 35 36  1  0  0  0  0
 35 73  1  0  0  0  0
 36 37  2  0  0  0  0
 36 38  1  0  0  0  0
 38 39  1  0  0  0  0
 38 74  1  0  0  0  0
 39 40  1  0  0  0  0
 39 41  1  0  0  0  0
 39 42  1  0  0  0  0
 40 75  1  0  0  0  0
 40 76  1  0  0  0  0
 40 77  1  0  0  0  0
 41 78  1  0  0  0  0
 41 79  1  0  0  0  0
 41 80  1  0  0  0  0
 42 81  1  0  0  0  0
 42 82  1  0  0  0  0
 42 83  1  0  0  0  0
 43 84  1  0  0  0  0
M  END
$$$$
