CHEMBL219722
 OpenBabel04072215363D

 43 46  0  0  0  0  0  0  0  0999 V2000
   -1.0894    2.0889   -3.1801 N   0  0  0  0  0  0  0  0  0  0  0  0
   -1.3590    0.9785   -2.4790 C   0  0  0  0  0  0  0  0  0  0  0  0
   -1.7421   -0.1249   -3.1136 N   0  0  0  0  0  0  0  0  0  0  0  0
   -1.9342   -1.0044   -2.1296 N   0  0  0  0  0  0  0  0  0  0  0  0
   -1.6826   -0.5224   -0.8763 C   0  0  0  0  0  0  0  0  0  0  0  0
   -1.7760   -1.1527    0.3639 C   0  0  0  0  0  0  0  0  0  0  0  0
   -1.4288   -0.4143    1.4851 C   0  0  0  0  0  0  0  0  0  0  0  0
   -1.0101    0.9079    1.3600 C   0  0  0  0  0  0  0  0  0  0  0  0
   -0.9205    1.5642    0.1075 C   0  0  0  0  0  0  0  0  0  0  0  0
   -0.4527    2.9639    0.0373 C   0  0  0  0  0  0  0  0  0  0  0  0
    0.4740    3.3662   -0.9245 C   0  0  0  0  0  0  0  0  0  0  0  0
    0.8526    4.7042   -1.0619 C   0  0  0  0  0  0  0  0  0  0  0  0
    0.3813    5.6846   -0.1883 C   0  0  0  0  0  0  0  0  0  0  0  0
    0.7545    7.0459   -0.2920 N   0  0  0  0  0  0  0  0  0  0  0  0
    1.3594    7.6088   -1.3995 C   0  0  0  0  0  0  0  0  0  0  0  0
    1.4944    7.0460   -2.4834 O   0  0  0  0  0  0  0  0  0  0  0  0
    1.8498    8.8828   -1.1373 N   0  0  0  0  0  0  0  0  0  0  0  0
    2.5774    9.5714   -2.1380 C   0  0  0  0  0  0  0  0  0  0  0  0
    2.1371    9.5998   -3.4666 C   0  0  0  0  0  0  0  0  0  0  0  0
    2.9375   10.1530   -4.4653 C   0  0  0  0  0  0  0  0  0  0  0  0
    4.1813   10.6872   -4.1360 C   0  0  0  0  0  0  0  0  0  0  0  0
    4.6046   10.7010   -2.8070 C   0  0  0  0  0  0  0  0  0  0  0  0
    3.7930   10.1679   -1.8016 C   0  0  0  0  0  0  0  0  0  0  0  0
   -0.4627    5.2872    0.8490 C   0  0  0  0  0  0  0  0  0  0  0  0
   -0.8850    3.9477    0.9478 C   0  0  0  0  0  0  0  0  0  0  0  0
   -1.2782    0.8053   -1.0518 C   0  0  0  0  0  0  0  0  0  0  0  0
   -1.3081    2.0696   -4.1697 H   0  0  0  0  0  0  0  0  0  0  0  0
   -1.1633    3.0078   -2.7619 H   0  0  0  0  0  0  0  0  0  0  0  0
   -2.2399   -1.9389   -2.3804 H   0  0  0  0  0  0  0  0  0  0  0  0
   -2.1012   -2.1857    0.4489 H   0  0  0  0  0  0  0  0  0  0  0  0
   -1.4768   -0.8750    2.4704 H   0  0  0  0  0  0  0  0  0  0  0  0
   -0.7178    1.4363    2.2692 H   0  0  0  0  0  0  0  0  0  0  0  0
    0.9052    2.6442   -1.6153 H   0  0  0  0  0  0  0  0  0  0  0  0
    1.5341    4.9331   -1.8756 H   0  0  0  0  0  0  0  0  0  0  0  0
    0.3790    7.6876    0.3883 H   0  0  0  0  0  0  0  0  0  0  0  0
    2.1647    9.0138   -0.1865 H   0  0  0  0  0  0  0  0  0  0  0  0
    1.1823    9.1590   -3.7433 H   0  0  0  0  0  0  0  0  0  0  0  0
    2.6011   10.1353   -5.4983 H   0  0  0  0  0  0  0  0  0  0  0  0
    4.8249   11.0771   -4.9203 H   0  0  0  0  0  0  0  0  0  0  0  0
    5.5844   11.0996   -2.5587 H   0  0  0  0  0  0  0  0  0  0  0  0
    4.1614   10.1515   -0.7806 H   0  0  0  0  0  0  0  0  0  0  0  0
   -0.8225    6.0042    1.5824 H   0  0  0  0  0  0  0  0  0  0  0  0
   -1.5705    3.6848    1.7519 H   0  0  0  0  0  0  0  0  0  0  0  0
  1  2  1  0  0  0  0
  1 27  1  0  0  0  0
  1 28  1  0  0  0  0
  2  3  2  0  0  0  0
  2 26  1  0  0  0  0
  3  4  1  0  0  0  0
  4  5  1  0  0  0  0
  4 29  1  0  0  0  0
  5  6  1  0  0  0  0
  5 26  2  0  0  0  0
  6  7  2  0  0  0  0
  6 30  1  0  0  0  0
  7  8  1  0  0  0  0
  7 31  1  0  0  0  0
  8  9  2  0  0  0  0
  8 32  1  0  0  0  0
  9 10  1  0  0  0  0
  9 26  1  0  0  0  0
 10 11  1  0  0  0  0
 10 25  2  0  0  0  0
 11 12  2  0  0  0  0
 11 33  1  0  0  0  0
 12 13  1  0  0  0  0
 12 34  1  0  0  0  0
 13 14  1  0  0  0  0
 13 24  2  0  0  0  0
 14 15  1  0  0  0  0
 14 35  1  0  0  0  0
 15 16  2  0  0  0  0
 15 17  1  0  0  0  0
 17 18  1  0  0  0  0
 17 36  1  0  0  0  0
 18 19  1  0  0  0  0
 18 23  2  0  0  0  0
 19 20  2  0  0  0  0
 19 37  1  0  0  0  0
 20 21  1  0  0  0  0
 20 38  1  0  0  0  0
 21 22  2  0  0  0  0
 21 39  1  0  0  0  0
 22 23  1  0  0  0  0
 22 40  1  0  0  0  0
 23 41  1  0  0  0  0
 24 25  1  0  0  0  0
 24 42  1  0  0  0  0
 25 43  1  0  0  0  0
M  END
$$$$
