CHEMBL1970074
 OpenBabel04072215363D

 47 50  0  0  0  0  0  0  0  0999 V2000
    3.3581    3.1502   -2.0158 C   0  0  0  0  0  0  0  0  0  0  0  0
    2.9910    1.7264   -1.7659 C   0  0  0  0  0  0  0  0  0  0  0  0
    3.7625    0.8054   -2.3473 N   0  0  0  0  0  0  0  0  0  0  0  0
    3.2507   -0.3531   -1.9330 N   0  0  0  0  0  0  0  0  0  0  0  0
    2.1701   -0.2311   -1.1061 C   0  0  0  0  0  0  0  0  0  0  0  0
    1.4183   -1.2302   -0.4844 C   0  0  0  0  0  0  0  0  0  0  0  0
    0.3542   -0.8268    0.3067 C   0  0  0  0  0  0  0  0  0  0  0  0
    0.0548    0.5252    0.4430 C   0  0  0  0  0  0  0  0  0  0  0  0
    0.8080    1.5578   -0.1859 C   0  0  0  0  0  0  0  0  0  0  0  0
    0.4062    2.9732    0.0037 C   0  0  0  0  0  0  0  0  0  0  0  0
   -0.1971    3.4026    1.1936 C   0  0  0  0  0  0  0  0  0  0  0  0
   -0.6523    4.7156    1.3609 C   0  0  0  0  0  0  0  0  0  0  0  0
   -0.4583    5.6824    0.3765 C   0  0  0  0  0  0  0  0  0  0  0  0
   -0.9184    7.0155    0.4870 N   0  0  0  0  0  0  0  0  0  0  0  0
   -1.6250    7.5265    1.5582 C   0  0  0  0  0  0  0  0  0  0  0  0
   -1.8863    6.9194    2.5903 O   0  0  0  0  0  0  0  0  0  0  0  0
   -2.0652    8.8244    1.3324 N   0  0  0  0  0  0  0  0  0  0  0  0
   -2.8224    9.4703    2.3409 C   0  0  0  0  0  0  0  0  0  0  0  0
   -4.0545   10.0332    2.0130 C   0  0  0  0  0  0  0  0  0  0  0  0
   -4.8445   10.5993    3.0156 C   0  0  0  0  0  0  0  0  0  0  0  0
   -4.3930   10.6254    4.3402 C   0  0  0  0  0  0  0  0  0  0  0  0
   -3.1525   10.0766    4.6811 C   0  0  0  0  0  0  0  0  0  0  0  0
   -2.6598   10.0808    6.1057 C   0  0  0  0  0  0  0  0  0  0  0  0
   -3.5311   10.6671    6.9762 F   0  0  0  0  0  0  0  0  0  0  0  0
   -2.4352    8.8306    6.5952 F   0  0  0  0  0  0  0  0  0  0  0  0
   -1.4860   10.7573    6.2501 F   0  0  0  0  0  0  0  0  0  0  0  0
   -2.3723    9.5001    3.6682 C   0  0  0  0  0  0  0  0  0  0  0  0
    0.1740    5.2919   -0.7992 C   0  0  0  0  0  0  0  0  0  0  0  0
    0.5223    3.9450   -0.9973 C   0  0  0  0  0  0  0  0  0  0  0  0
    1.9256    1.1433   -0.9824 C   0  0  0  0  0  0  0  0  0  0  0  0
    4.3721    3.2333   -2.4217 H   0  0  0  0  0  0  0  0  0  0  0  0
    3.3252    3.7416   -1.0977 H   0  0  0  0  0  0  0  0  0  0  0  0
    2.7053    3.5911   -2.7736 H   0  0  0  0  0  0  0  0  0  0  0  0
    3.6898   -1.2135   -2.2369 H   0  0  0  0  0  0  0  0  0  0  0  0
    1.6527   -2.2823   -0.6073 H   0  0  0  0  0  0  0  0  0  0  0  0
   -0.2580   -1.5692    0.8152 H   0  0  0  0  0  0  0  0  0  0  0  0
   -0.8093    0.7761    1.0566 H   0  0  0  0  0  0  0  0  0  0  0  0
   -0.3645    2.7180    2.0236 H   0  0  0  0  0  0  0  0  0  0  0  0
   -1.1626    4.9302    2.2932 H   0  0  0  0  0  0  0  0  0  0  0  0
   -0.6906    7.6486   -0.2650 H   0  0  0  0  0  0  0  0  0  0  0  0
   -2.3373    9.0130    0.3793 H   0  0  0  0  0  0  0  0  0  0  0  0
   -4.4451    9.9701    1.0015 H   0  0  0  0  0  0  0  0  0  0  0  0
   -5.8263   10.9985    2.7695 H   0  0  0  0  0  0  0  0  0  0  0  0
   -5.0277   11.0697    5.1063 H   0  0  0  0  0  0  0  0  0  0  0  0
   -1.4119    9.0534    3.9257 H   0  0  0  0  0  0  0  0  0  0  0  0
    0.3697    5.9997   -1.5993 H   0  0  0  0  0  0  0  0  0  0  0  0
    0.8563    3.6580   -1.9853 H   0  0  0  0  0  0  0  0  0  0  0  0
  1  2  1  0  0  0  0
  1 31  1  0  0  0  0
  1 32  1  0  0  0  0
  1 33  1  0  0  0  0
  2  3  2  0  0  0  0
  2 30  1  0  0  0  0
  3  4  1  0  0  0  0
  4  5  1  0  0  0  0
  4 34  1  0  0  0  0
  5  6  1  0  0  0  0
  5 30  2  0  0  0  0
  6  7  2  0  0  0  0
  6 35  1  0  0  0  0
  7  8  1  0  0  0  0
  7 36  1  0  0  0  0
  8  9  2  0  0  0  0
  8 37  1  0  0  0  0
  9 10  1  0  0  0  0
  9 30  1  0  0  0  0
 10 11  1  0  0  0  0
 10 29  2  0  0  0  0
 11 12  2  0  0  0  0
 11 38  1  0  0  0  0
 12 13  1  0  0  0  0
 12 39  1  0  0  0  0
 13 14  1  0  0  0  0
 13 28  2  0  0  0  0
 14 15  1  0  0  0  0
 14 40  1  0  0  0  0
 15 16  2  0  0  0  0
 15 17  1  0  0  0  0
 17 18  1  0  0  0  0
 17 41  1  0  0  0  0
 18 19  1  0  0  0  0
 18 27  2  0  0  0  0
 19 20  2  0  0  0  0
 19 42  1  0  0  0  0
 20 21  1  0  0  0  0
 20 43  1  0  0  0  0
 21 22  2  0  0  0  0
 21 44  1  0  0  0  0
 22 23  1  0  0  0  0
 22 27  1  0  0  0  0
 23 24  1  0  0  0  0
 23 25  1  0  0  0  0
 23 26  1  0  0  0  0
 27 45  1  0  0  0  0
 28 29  1  0  0  0  0
 28 46  1  0  0  0  0
 29 47  1  0  0  0  0
M  END
$$$$
