CHEMBL3760090
 OpenBabel04072215373D

 73 77  0  0  0  0  0  0  0  0999 V2000
    2.8567   -0.4425    0.9874 C   0  0  0  0  0  0  0  0  0  0  0  0
    2.6246    0.4105   -0.1365 O   0  0  0  0  0  0  0  0  0  0  0  0
    3.3701    0.1615   -1.2612 C   0  0  0  0  0  0  0  0  0  0  0  0
    4.5132   -0.6483   -1.2507 C   0  0  0  0  0  0  0  0  0  0  0  0
    5.1755   -1.0039   -2.4502 C   0  0  0  0  0  0  0  0  0  0  0  0
    6.1815   -1.9774   -2.5680 C   0  0  0  0  0  0  0  0  0  0  0  0
    6.5557   -2.7248   -1.4185 N   0  0  0  0  0  0  0  0  0  0  0  0
    7.2670   -3.9423   -1.4305 C   0  0  0  0  0  0  0  0  0  0  0  0
    8.1952   -4.2100   -0.4261 C   0  0  0  0  0  0  0  0  0  0  0  0
    8.9818   -5.3662   -0.4742 C   0  0  0  0  0  0  0  0  0  0  0  0
    8.8397   -6.2950   -1.5066 C   0  0  0  0  0  0  0  0  0  0  0  0
    9.6903   -7.4131   -1.6829 N   0  0  0  0  0  0  0  0  0  0  0  0
   10.7779   -7.7314   -0.8880 C   0  0  0  0  0  0  0  0  0  0  0  0
   11.0911   -7.1756    0.1594 O   0  0  0  0  0  0  0  0  0  0  0  0
   11.6539   -8.8527   -1.3350 C   0  0  0  0  0  0  0  0  0  0  0  0
   11.7995   -9.2440   -2.6741 C   0  0  0  0  0  0  0  0  0  0  0  0
   12.7183  -10.2463   -3.0072 C   0  0  0  0  0  0  0  0  0  0  0  0
   13.4879  -10.8577   -2.0137 C   0  0  0  0  0  0  0  0  0  0  0  0
   14.6448  -12.0582   -2.4366 Cl  0  0  0  0  0  0  0  0  0  0  0  0
   13.3506  -10.4766   -0.6829 C   0  0  0  0  0  0  0  0  0  0  0  0
   12.4342   -9.4818   -0.3475 C   0  0  0  0  0  0  0  0  0  0  0  0
    7.8275   -6.0887   -2.4474 C   0  0  0  0  0  0  0  0  0  0  0  0
    7.0442   -4.9280   -2.3996 C   0  0  0  0  0  0  0  0  0  0  0  0
    6.7584   -2.2673   -3.7500 N   0  0  0  0  0  0  0  0  0  0  0  0
    6.3312   -1.5910   -4.8160 C   0  0  0  0  0  0  0  0  0  0  0  0
    5.3679   -0.6689   -4.8202 N   0  0  0  0  0  0  0  0  0  0  0  0
    4.7863   -0.4102   -3.6493 C   0  0  0  0  0  0  0  0  0  0  0  0
    3.7148    0.4633   -3.6350 C   0  0  0  0  0  0  0  0  0  0  0  0
    2.9467    0.7107   -2.4833 C   0  0  0  0  0  0  0  0  0  0  0  0
    1.7658    1.4396   -2.5293 O   0  0  0  0  0  0  0  0  0  0  0  0
    1.2205    1.5550   -3.8580 C   0  0  0  0  0  0  0  0  0  0  0  0
   -0.2286    2.0336   -3.8891 C   0  0  0  0  0  0  0  0  0  0  0  0
   -0.8067    1.9437   -5.3216 C   0  0  0  0  0  0  0  0  0  0  0  0
   -0.7825    0.5937   -5.9168 N   0  0  0  0  0  0  0  0  0  0  0  0
   -1.5879   -0.3794   -5.1553 C   0  0  0  0  0  0  0  0  0  0  0  0
   -1.5850   -1.7839   -5.8042 C   0  0  0  0  0  0  0  0  0  0  0  0
   -2.0227   -1.8223   -7.2117 N   0  0  0  0  0  0  0  0  0  0  0  0
   -3.4677   -1.6494   -7.3331 C   0  0  0  0  0  0  0  0  0  0  0  0
   -1.2787   -0.7985   -7.9725 C   0  0  0  0  0  0  0  0  0  0  0  0
   -1.2362    0.6127   -7.3252 C   0  0  0  0  0  0  0  0  0  0  0  0
    3.6905   -0.0616    1.5881 H   0  0  0  0  0  0  0  0  0  0  0  0
    3.0371   -1.4857    0.7012 H   0  0  0  0  0  0  0  0  0  0  0  0
    1.9579   -0.4432    1.6100 H   0  0  0  0  0  0  0  0  0  0  0  0
    4.8854   -1.0632   -0.3203 H   0  0  0  0  0  0  0  0  0  0  0  0
    6.8966   -2.0903   -0.7046 H   0  0  0  0  0  0  0  0  0  0  0  0
    8.3580   -3.5080    0.3867 H   0  0  0  0  0  0  0  0  0  0  0  0
    9.7178   -5.4864    0.3121 H   0  0  0  0  0  0  0  0  0  0  0  0
    9.4844   -8.0024   -2.4770 H   0  0  0  0  0  0  0  0  0  0  0  0
   11.2555   -8.7533   -3.4750 H   0  0  0  0  0  0  0  0  0  0  0  0
   12.8513  -10.5388   -4.0481 H   0  0  0  0  0  0  0  0  0  0  0  0
   13.9589  -10.9300    0.0939 H   0  0  0  0  0  0  0  0  0  0  0  0
   12.3528   -9.1695    0.6954 H   0  0  0  0  0  0  0  0  0  0  0  0
    7.6433   -6.7991   -3.2481 H   0  0  0  0  0  0  0  0  0  0  0  0
    6.2706   -4.7831   -3.1505 H   0  0  0  0  0  0  0  0  0  0  0  0
    6.7983   -1.8226   -5.7663 H   0  0  0  0  0  0  0  0  0  0  0  0
    3.4554    0.9026   -4.5934 H   0  0  0  0  0  0  0  0  0  0  0  0
    1.2589    0.5720   -4.3397 H   0  0  0  0  0  0  0  0  0  0  0  0
    1.8221    2.2789   -4.4217 H   0  0  0  0  0  0  0  0  0  0  0  0
   -0.2714    3.0767   -3.5510 H   0  0  0  0  0  0  0  0  0  0  0  0
   -0.8394    1.4704   -3.1759 H   0  0  0  0  0  0  0  0  0  0  0  0
   -0.2065    2.6087   -5.9574 H   0  0  0  0  0  0  0  0  0  0  0  0
   -1.8276    2.3447   -5.3240 H   0  0  0  0  0  0  0  0  0  0  0  0
   -2.6195   -0.0213   -5.0509 H   0  0  0  0  0  0  0  0  0  0  0  0
   -1.1782   -0.4961   -4.1469 H   0  0  0  0  0  0  0  0  0  0  0  0
   -2.1948   -2.4667   -5.1997 H   0  0  0  0  0  0  0  0  0  0  0  0
   -0.5641   -2.1870   -5.7585 H   0  0  0  0  0  0  0  0  0  0  0  0
   -3.9957   -2.4092   -6.7451 H   0  0  0  0  0  0  0  0  0  0  0  0
   -3.7794   -1.7946   -8.3733 H   0  0  0  0  0  0  0  0  0  0  0  0
   -3.8169   -0.6649   -7.0065 H   0  0  0  0  0  0  0  0  0  0  0  0
   -1.6787   -0.7251   -8.9922 H   0  0  0  0  0  0  0  0  0  0  0  0
   -0.2470   -1.1574   -8.0897 H   0  0  0  0  0  0  0  0  0  0  0  0
   -2.2315    1.0691   -7.3977 H   0  0  0  0  0  0  0  0  0  0  0  0
   -0.5529    1.2314   -7.9198 H   0  0  0  0  0  0  0  0  0  0  0  0
  1  2  1  0  0  0  0
  1 41  1  0  0  0  0
  1 42  1  0  0  0  0
  1 43  1  0  0  0  0
  2  3  1  0  0  0  0
  3  4  1  0  0  0  0
  3 29  2  0  0  0  0
  4  5  2  0  0  0  0
  4 44  1  0  0  0  0
  5  6  1  0  0  0  0
  5 27  1  0  0  0  0
  6  7  1  0  0  0  0
  6 24  2  0  0  0  0
  7  8  1  0  0  0  0
  7 45  1  0  0  0  0
  8  9  1  0  0  0  0
  8 23  2  0  0  0  0
  9 10  2  0  0  0  0
  9 46  1  0  0  0  0
 10 11  1  0  0  0  0
 10 47  1  0  0  0  0
 11 12  1  0  0  0  0
 11 22  2  0  0  0  0
 12 13  1  0  0  0  0
 12 48  1  0  0  0  0
 13 14  2  0  0  0  0
 13 15  1  0  0  0  0
 15 16  1  0  0  0  0
 15 21  2  0  0  0  0
 16 17  2  0  0  0  0
 16 49  1  0  0  0  0
 17 18  1  0  0  0  0
 17 50  1  0  0  0  0
 18 19  1  0  0  0  0
 18 20  2  0  0  0  0
 20 21  1  0  0  0  0
 20 51  1  0  0  0  0
 21 52  1  0  0  0  0
 22 23  1  0  0  0  0
 22 53  1  0  0  0  0
 23 54  1  0  0  0  0
 24 25  1  0  0  0  0
 25 26  2  0  0  0  0
 25 55  1  0  0  0  0
 26 27  1  0  0  0  0
 27 28  2  0  0  0  0
 28 29  1  0  0  0  0
 28 56  1  0  0  0  0
 29 30  1  0  0  0  0
 30 31  1  0  0  0  0
 31 32  1  0  0  0  0
 31 57  1  0  0  0  0
 31 58  1  0  0  0  0
 32 33  1  0  0  0  0
 32 59  1  0  0  0  0
 32 60  1  0  0  0  0
 33 34  1  0  0  0  0
 33 61  1  0  0  0  0
 33 62  1  0  0  0  0
 34 35  1  0  0  0  0
 34 40  1  0  0  0  0
 35 36  1  0  0  0  0
 35 63  1  0  0  0  0
 35 64  1  0  0  0  0
 36 37  1  0  0  0  0
 36 65  1  0  0  0  0
 36 66  1  0  0  0  0
 37 38  1  0  0  0  0
 37 39  1  0  0  0  0
 38 67  1  0  0  0  0
 38 68  1  0  0  0  0
 38 69  1  0  0  0  0
 39 40  1  0  0  0  0
 39 70  1  0  0  0  0
 39 71  1  0  0  0  0
 40 72  1  0  0  0  0
 40 73  1  0  0  0  0
M  END
$$$$
