CHEMBL3938494
 OpenBabel04072215373D

 78 82  0  0  0  0  0  0  0  0999 V2000
    2.5331    1.2903    0.3108 C   0  0  0  0  0  0  0  0  0  0  0  0
    2.3291   -0.0462   -0.1322 O   0  0  0  0  0  0  0  0  0  0  0  0
    3.1060   -1.0502    0.3738 C   0  0  0  0  0  0  0  0  0  0  0  0
    4.2387   -0.8166    1.1481 C   0  0  0  0  0  0  0  0  0  0  0  0
    4.9515   -1.8787    1.7496 C   0  0  0  0  0  0  0  0  0  0  0  0
    6.0424   -1.6961    2.6090 C   0  0  0  0  0  0  0  0  0  0  0  0
    6.3420   -0.3880    3.0454 N   0  0  0  0  0  0  0  0  0  0  0  0
    7.5829    0.1852    3.3579 C   0  0  0  0  0  0  0  0  0  0  0  0
    7.6103    1.4474    3.9545 C   0  0  0  0  0  0  0  0  0  0  0  0
    8.7984    2.1592    4.0815 C   0  0  0  0  0  0  0  0  0  0  0  0
   10.0001    1.6556    3.5742 C   0  0  0  0  0  0  0  0  0  0  0  0
   11.1914    2.4353    3.5466 N   0  0  0  0  0  0  0  0  0  0  0  0
   11.2478    3.8021    3.7087 C   0  0  0  0  0  0  0  0  0  0  0  0
   10.2852    4.5154    3.9807 O   0  0  0  0  0  0  0  0  0  0  0  0
   12.5153    4.3089    3.4725 N   0  0  0  0  0  0  0  0  0  0  0  0
   12.7376    5.7109    3.5366 C   0  0  0  0  0  0  0  0  0  0  0  0
   12.2791    6.4372    4.6469 C   0  0  0  0  0  0  0  0  0  0  0  0
   12.4412    7.8205    4.7075 C   0  0  0  0  0  0  0  0  0  0  0  0
   13.0648    8.4874    3.6601 C   0  0  0  0  0  0  0  0  0  0  0  0
   13.5350    7.7702    2.5578 C   0  0  0  0  0  0  0  0  0  0  0  0
   13.3792    6.3752    2.4816 C   0  0  0  0  0  0  0  0  0  0  0  0
   13.8447    5.6567    1.2471 C   0  0  0  0  0  0  0  0  0  0  0  0
    9.9898    0.3641    3.0323 C   0  0  0  0  0  0  0  0  0  0  0  0
   11.4338   -0.3424    2.3848 Cl  0  0  0  0  0  0  0  0  0  0  0  0
    8.7982   -0.3581    2.9205 C   0  0  0  0  0  0  0  0  0  0  0  0
    6.7746   -2.7271    3.0643 N   0  0  0  0  0  0  0  0  0  0  0  0
    6.3729   -3.9441    2.7016 C   0  0  0  0  0  0  0  0  0  0  0  0
    5.3007   -4.2368    1.9588 N   0  0  0  0  0  0  0  0  0  0  0  0
    4.5962   -3.2003    1.4839 C   0  0  0  0  0  0  0  0  0  0  0  0
    3.4874   -3.4324    0.6817 C   0  0  0  0  0  0  0  0  0  0  0  0
    2.7514   -2.3836    0.1106 C   0  0  0  0  0  0  0  0  0  0  0  0
    1.7133   -2.8192   -0.6799 O   0  0  0  0  0  0  0  0  0  0  0  0
    1.3653   -1.9480   -1.7516 C   0  0  0  0  0  0  0  0  0  0  0  0
    0.7795   -2.7477   -2.9063 C   0  0  0  0  0  0  0  0  0  0  0  0
    0.4480   -1.7778   -4.0480 C   0  0  0  0  0  0  0  0  0  0  0  0
   -0.0342   -2.4475   -5.2545 N   0  0  0  0  0  0  0  0  0  0  0  0
   -1.3087   -3.1557   -5.0462 C   0  0  0  0  0  0  0  0  0  0  0  0
   -1.7507   -3.8746   -6.3379 C   0  0  0  0  0  0  0  0  0  0  0  0
   -1.9158   -2.9879   -7.5062 N   0  0  0  0  0  0  0  0  0  0  0  0
   -3.1128   -2.1612   -7.3796 C   0  0  0  0  0  0  0  0  0  0  0  0
   -0.6969   -2.1654   -7.6611 C   0  0  0  0  0  0  0  0  0  0  0  0
   -0.1884   -1.4847   -6.3658 C   0  0  0  0  0  0  0  0  0  0  0  0
    3.1570    1.8226   -0.4134 H   0  0  0  0  0  0  0  0  0  0  0  0
    2.9563    1.3733    1.3155 H   0  0  0  0  0  0  0  0  0  0  0  0
    1.5554    1.7778    0.3479 H   0  0  0  0  0  0  0  0  0  0  0  0
    4.6234    0.1871    1.2755 H   0  0  0  0  0  0  0  0  0  0  0  0
    5.5645   -0.0017    3.5688 H   0  0  0  0  0  0  0  0  0  0  0  0
    6.6875    1.9177    4.3014 H   0  0  0  0  0  0  0  0  0  0  0  0
    8.7358    3.1303    4.5638 H   0  0  0  0  0  0  0  0  0  0  0  0
   12.0207    1.9500    3.2217 H   0  0  0  0  0  0  0  0  0  0  0  0
   13.0426    3.8035    2.7775 H   0  0  0  0  0  0  0  0  0  0  0  0
   11.7807    5.9343    5.4697 H   0  0  0  0  0  0  0  0  0  0  0  0
   12.0670    8.3725    5.5659 H   0  0  0  0  0  0  0  0  0  0  0  0
   13.1766    9.5684    3.6943 H   0  0  0  0  0  0  0  0  0  0  0  0
   13.9998    8.3163    1.7395 H   0  0  0  0  0  0  0  0  0  0  0  0
   14.1049    6.3586    0.4482 H   0  0  0  0  0  0  0  0  0  0  0  0
   13.0495    5.0131    0.8545 H   0  0  0  0  0  0  0  0  0  0  0  0
   14.7262    5.0507    1.4742 H   0  0  0  0  0  0  0  0  0  0  0  0
    8.8103   -1.3330    2.4421 H   0  0  0  0  0  0  0  0  0  0  0  0
    6.9751   -4.7807    3.0455 H   0  0  0  0  0  0  0  0  0  0  0  0
    3.1949   -4.4578    0.4767 H   0  0  0  0  0  0  0  0  0  0  0  0
    2.2458   -1.4113   -2.1354 H   0  0  0  0  0  0  0  0  0  0  0  0
    0.6111   -1.2363   -1.3952 H   0  0  0  0  0  0  0  0  0  0  0  0
   -0.1026   -3.2872   -2.5516 H   0  0  0  0  0  0  0  0  0  0  0  0
    1.4988   -3.5073   -3.2365 H   0  0  0  0  0  0  0  0  0  0  0  0
    1.3707   -1.2384   -4.3007 H   0  0  0  0  0  0  0  0  0  0  0  0
   -0.2735   -1.0273   -3.7005 H   0  0  0  0  0  0  0  0  0  0  0  0
   -2.0885   -2.4610   -4.7071 H   0  0  0  0  0  0  0  0  0  0  0  0
   -1.2044   -3.9232   -4.2734 H   0  0  0  0  0  0  0  0  0  0  0  0
   -2.6747   -4.4342   -6.1495 H   0  0  0  0  0  0  0  0  0  0  0  0
   -0.9946   -4.6320   -6.5872 H   0  0  0  0  0  0  0  0  0  0  0  0
   -3.9975   -2.7911   -7.2324 H   0  0  0  0  0  0  0  0  0  0  0  0
   -3.2813   -1.5987   -8.3040 H   0  0  0  0  0  0  0  0  0  0  0  0
   -3.0650   -1.4473   -6.5513 H   0  0  0  0  0  0  0  0  0  0  0  0
   -0.8481   -1.4078   -8.4402 H   0  0  0  0  0  0  0  0  0  0  0  0
    0.1013   -2.8190   -8.0375 H   0  0  0  0  0  0  0  0  0  0  0  0
   -0.8753   -0.6758   -6.0823 H   0  0  0  0  0  0  0  0  0  0  0  0
    0.7804   -1.0186   -6.5856 H   0  0  0  0  0  0  0  0  0  0  0  0
  1  2  1  0  0  0  0
  1 43  1  0  0  0  0
  1 44  1  0  0  0  0
  1 45  1  0  0  0  0
  2  3  1  0  0  0  0
  3  4  1  0  0  0  0
  3 31  2  0  0  0  0
  4  5  2  0  0  0  0
  4 46  1  0  0  0  0
  5  6  1  0  0  0  0
  5 29  1  0  0  0  0
  6  7  1  0  0  0  0
  6 26  2  0  0  0  0
  7  8  1  0  0  0  0
  7 47  1  0  0  0  0
  8  9  1  0  0  0  0
  8 25  2  0  0  0  0
  9 10  2  0  0  0  0
  9 48  1  0  0  0  0
 10 11  1  0  0  0  0
 10 49  1  0  0  0  0
 11 12  1  0  0  0  0
 11 23  2  0  0  0  0
 12 13  1  0  0  0  0
 12 50  1  0  0  0  0
 13 14  2  0  0  0  0
 13 15  1  0  0  0  0
 15 16  1  0  0  0  0
 15 51  1  0  0  0  0
 16 17  1  0  0  0  0
 16 21  2  0  0  0  0
 17 18  2  0  0  0  0
 17 52  1  0  0  0  0
 18 19  1  0  0  0  0
 18 53  1  0  0  0  0
 19 20  2  0  0  0  0
 19 54  1  0  0  0  0
 20 21  1  0  0  0  0
 20 55  1  0  0  0  0
 21 22  1  0  0  0  0
 22 56  1  0  0  0  0
 22 57  1  0  0  0  0
 22 58  1  0  0  0  0
 23 24  1  0  0  0  0
 23 25  1  0  0  0  0
 25 59  1  0  0  0  0
 26 27  1  0  0  0  0
 27 28  2  0  0  0  0
 27 60  1  0  0  0  0
 28 29  1  0  0  0  0
 29 30  2  0  0  0  0
 30 31  1  0  0  0  0
 30 61  1  0  0  0  0
 31 32  1  0  0  0  0
 32 33  1  0  0  0  0
 33 34  1  0  0  0  0
 33 62  1  0  0  0  0
 33 63  1  0  0  0  0
 34 35  1  0  0  0  0
 34 64  1  0  0  0  0
 34 65  1  0  0  0  0
 35 36  1  0  0  0  0
 35 66  1  0  0  0  0
 35 67  1  0  0  0  0
 36 37  1  0  0  0  0
 36 42  1  0  0  0  0
 37 38  1  0  0  0  0
 37 68  1  0  0  0  0
 37 69  1  0  0  0  0
 38 39  1  0  0  0  0
 38 70  1  0  0  0  0
 38 71  1  0  0  0  0
 39 40  1  0  0  0  0
 39 41  1  0  0  0  0
 40 72  1  0  0  0  0
 40 73  1  0  0  0  0
 40 74  1  0  0  0  0
 41 42  1  0  0  0  0
 41 75  1  0  0  0  0
 41 76  1  0  0  0  0
 42 77  1  0  0  0  0
 42 78  1  0  0  0  0
M  END
$$$$
