CHEMBL2086723
 OpenBabel04072215363D

 44 48  0  0  0  0  0  0  0  0999 V2000
    2.4512   -0.4017   -0.1638 C   0  0  0  0  0  0  0  0  0  0  0  0
    0.9504   -0.3714   -0.1249 C   0  0  0  0  0  0  0  0  0  0  0  0
    0.2033   -0.2719   -1.3023 C   0  0  0  0  0  0  0  0  0  0  0  0
   -1.1954   -0.2380   -1.2565 C   0  0  0  0  0  0  0  0  0  0  0  0
   -1.8772   -0.3062   -0.0338 C   0  0  0  0  0  0  0  0  0  0  0  0
   -3.3467   -0.0850   -0.0112 C   0  0  0  0  0  0  0  0  0  0  0  0
   -4.2698   -1.0727   -0.1062 C   0  0  0  0  0  0  0  0  0  0  0  0
   -3.9622   -2.5550   -0.0513 C   0  0  0  0  0  0  0  0  0  0  0  0
   -2.8829   -3.1089   -0.0044 O   0  0  0  0  0  0  0  0  0  0  0  0
   -5.1984   -3.1849   -0.0052 N   0  0  0  0  0  0  0  0  0  0  0  0
   -6.2447   -2.2737   -0.0804 C   0  0  0  0  0  0  0  0  0  0  0  0
   -7.5985   -2.5684   -0.0893 C   0  0  0  0  0  0  0  0  0  0  0  0
   -8.4918   -1.5067   -0.2301 C   0  0  0  0  0  0  0  0  0  0  0  0
   -8.0179   -0.1972   -0.3918 C   0  0  0  0  0  0  0  0  0  0  0  0
   -6.6448    0.0702   -0.3820 C   0  0  0  0  0  0  0  0  0  0  0  0
   -5.7509   -0.9717   -0.1844 C   0  0  0  0  0  0  0  0  0  0  0  0
   -3.8075    1.2596    0.0913 C   0  0  0  0  0  0  0  0  0  0  0  0
   -4.0470    2.1647   -0.8348 N   0  0  0  0  0  0  0  0  0  0  0  0
   -4.4780    3.2783   -0.1578 C   0  0  0  0  0  0  0  0  0  0  0  0
   -4.8789    4.5240   -0.6556 C   0  0  0  0  0  0  0  0  0  0  0  0
   -5.2648    5.5144    0.2551 C   0  0  0  0  0  0  0  0  0  0  0  0
   -5.2711    5.2610    1.6298 C   0  0  0  0  0  0  0  0  0  0  0  0
   -4.8998    4.0130    2.1436 C   0  0  0  0  0  0  0  0  0  0  0  0
   -4.5026    3.0518    1.2134 C   0  0  0  0  0  0  0  0  0  0  0  0
   -4.0672    1.7594    1.3469 N   0  0  0  0  0  0  0  0  0  0  0  0
   -1.1276   -0.4032    1.1472 C   0  0  0  0  0  0  0  0  0  0  0  0
    0.2738   -0.4339    1.1003 C   0  0  0  0  0  0  0  0  0  0  0  0
    2.8283   -0.3732   -1.1920 H   0  0  0  0  0  0  0  0  0  0  0  0
    2.8228   -1.3211    0.3002 H   0  0  0  0  0  0  0  0  0  0  0  0
    2.8653    0.4615    0.3676 H   0  0  0  0  0  0  0  0  0  0  0  0
    0.7013   -0.2008   -2.2667 H   0  0  0  0  0  0  0  0  0  0  0  0
   -1.7508   -0.1165   -2.1839 H   0  0  0  0  0  0  0  0  0  0  0  0
   -5.2952   -4.1887    0.0410 H   0  0  0  0  0  0  0  0  0  0  0  0
   -7.9632   -3.5855    0.0051 H   0  0  0  0  0  0  0  0  0  0  0  0
   -9.5640   -1.6894   -0.2385 H   0  0  0  0  0  0  0  0  0  0  0  0
   -8.7192    0.6218   -0.5385 H   0  0  0  0  0  0  0  0  0  0  0  0
   -6.3206    1.0885   -0.5595 H   0  0  0  0  0  0  0  0  0  0  0  0
   -4.8770    4.7074   -1.7239 H   0  0  0  0  0  0  0  0  0  0  0  0
   -5.5578    6.4936   -0.1156 H   0  0  0  0  0  0  0  0  0  0  0  0
   -5.5677    6.0520    2.3157 H   0  0  0  0  0  0  0  0  0  0  0  0
   -4.9108    3.8154    3.2097 H   0  0  0  0  0  0  0  0  0  0  0  0
   -3.9669    1.2516    2.2133 H   0  0  0  0  0  0  0  0  0  0  0  0
   -1.6187   -0.4303    2.1154 H   0  0  0  0  0  0  0  0  0  0  0  0
    0.8381   -0.4933    2.0285 H   0  0  0  0  0  0  0  0  0  0  0  0
  1  2  1  0  0  0  0
  1 28  1  0  0  0  0
  1 29  1  0  0  0  0
  1 30  1  0  0  0  0
  2  3  1  0  0  0  0
  2 27  2  0  0  0  0
  3  4  2  0  0  0  0
  3 31  1  0  0  0  0
  4  5  1  0  0  0  0
  4 32  1  0  0  0  0
  5  6  1  0  0  0  0
  5 26  2  0  0  0  0
  6  7  2  3  0  0  0
  6 17  1  0  0  0  0
  7  8  1  0  0  0  0
  7 16  1  0  0  0  0
  8  9  2  0  0  0  0
  8 10  1  0  0  0  0
 10 11  1  0  0  0  0
 10 33  1  0  0  0  0
 11 12  1  0  0  0  0
 11 16  2  0  0  0  0
 12 13  2  0  0  0  0
 12 34  1  0  0  0  0
 13 14  1  0  0  0  0
 13 35  1  0  0  0  0
 14 15  2  0  0  0  0
 14 36  1  0  0  0  0
 15 16  1  0  0  0  0
 15 37  1  0  0  0  0
 17 18  2  0  0  0  0
 17 25  1  0  0  0  0
 18 19  1  0  0  0  0
 19 20  1  0  0  0  0
 19 24  2  0  0  0  0
 20 21  2  0  0  0  0
 20 38  1  0  0  0  0
 21 22  1  0  0  0  0
 21 39  1  0  0  0  0
 22 23  2  0  0  0  0
 22 40  1  0  0  0  0
 23 24  1  0  0  0  0
 23 41  1  0  0  0  0
 24 25  1  0  0  0  0
 25 42  1  0  0  0  0
 26 27  1  0  0  0  0
 26 43  1  0  0  0  0
 27 44  1  0  0  0  0
M  END
$$$$
