CHEMBL1940851
 OpenBabel04072215363D

 36 38  0  0  0  0  0  0  0  0999 V2000
    1.0077    0.1078    0.0184 C   0  0  0  0  0  0  0  0  0  0  0  0
    2.5067    0.1153    0.1030 C   0  0  0  0  0  0  0  0  0  0  0  0
    3.2290    1.3086    0.1128 C   0  0  0  0  0  0  0  0  0  0  0  0
    4.6237    1.2806    0.1901 C   0  0  0  0  0  0  0  0  0  0  0  0
    5.3128    0.0559    0.2487 C   0  0  0  0  0  0  0  0  0  0  0  0
    6.7196   -0.0196    0.2953 C   0  0  0  0  0  0  0  0  0  0  0  0
    7.3772   -1.2580    0.3138 C   0  0  0  0  0  0  0  0  0  0  0  0
    8.8570   -1.2526    0.2816 C   0  0  0  0  0  0  0  0  0  0  0  0
    9.6352   -2.1258    0.9430 C   0  0  0  0  0  0  0  0  0  0  0  0
   11.1368   -2.0931    0.8960 C   0  0  0  0  0  0  0  0  0  0  0  0
   11.6994   -1.4842   -0.0152 O   0  0  0  0  0  0  0  0  0  0  0  0
   11.8516   -2.8517    1.9250 C   0  0  0  0  0  0  0  0  0  0  0  0
   11.1840   -2.9747    3.5088 S   0  0  0  0  0  0  0  0  0  0  0  0
   12.4445   -3.9765    4.0488 C   0  0  0  0  0  0  0  0  0  0  0  0
   13.3964   -4.1677    3.0771 C   0  0  0  0  0  0  0  0  0  0  0  0
   13.0825   -3.4967    1.8453 C   0  0  0  0  0  0  0  0  0  0  0  0
   13.9702   -3.5486    0.6423 C   0  0  0  0  0  0  0  0  0  0  0  0
    6.5424   -2.3796    0.2875 C   0  0  0  0  0  0  0  0  0  0  0  0
    7.1091   -4.0063    0.1860 Cl  0  0  0  0  0  0  0  0  0  0  0  0
    5.1881   -2.3447    0.2782 N   0  0  0  0  0  0  0  0  0  0  0  0
    4.5884   -1.1510    0.2454 C   0  0  0  0  0  0  0  0  0  0  0  0
    3.2040   -1.0990    0.1886 C   0  0  0  0  0  0  0  0  0  0  0  0
    0.6108    1.1074   -0.1863 H   0  0  0  0  0  0  0  0  0  0  0  0
    0.5783   -0.2458    0.9611 H   0  0  0  0  0  0  0  0  0  0  0  0
    0.6797   -0.5503   -0.7937 H   0  0  0  0  0  0  0  0  0  0  0  0
    2.7158    2.2664    0.0504 H   0  0  0  0  0  0  0  0  0  0  0  0
    5.1691    2.2221    0.1884 H   0  0  0  0  0  0  0  0  0  0  0  0
    7.2992    0.9028    0.3033 H   0  0  0  0  0  0  0  0  0  0  0  0
    9.3189   -0.4475   -0.2876 H   0  0  0  0  0  0  0  0  0  0  0  0
    9.2068   -2.9139    1.5485 H   0  0  0  0  0  0  0  0  0  0  0  0
   12.4353   -4.3670    5.0571 H   0  0  0  0  0  0  0  0  0  0  0  0
   14.2857   -4.7652    3.2396 H   0  0  0  0  0  0  0  0  0  0  0  0
   14.9174   -4.0468    0.8794 H   0  0  0  0  0  0  0  0  0  0  0  0
   14.2095   -2.5417    0.2879 H   0  0  0  0  0  0  0  0  0  0  0  0
   13.4917   -4.1090   -0.1667 H   0  0  0  0  0  0  0  0  0  0  0  0
    2.6503   -2.0371    0.1877 H   0  0  0  0  0  0  0  0  0  0  0  0
  1  2  1  0  0  0  0
  1 23  1  0  0  0  0
  1 24  1  0  0  0  0
  1 25  1  0  0  0  0
  2  3  1  0  0  0  0
  2 22  2  0  0  0  0
  3  4  2  0  0  0  0
  3 26  1  0  0  0  0
  4  5  1  0  0  0  0
  4 27  1  0  0  0  0
  5  6  1  0  0  0  0
  5 21  2  0  0  0  0
  6  7  2  0  0  0  0
  6 28  1  0  0  0  0
  7  8  1  0  0  0  0
  7 18  1  0  0  0  0
  8  9  2  0  0  0  0
  8 29  1  0  0  0  0
  9 10  1  0  0  0  0
  9 30  1  0  0  0  0
 10 11  2  0  0  0  0
 10 12  1  0  0  0  0
 12 13  1  0  0  0  0
 12 16  2  0  0  0  0
 13 14  1  0  0  0  0
 14 15  2  0  0  0  0
 14 31  1  0  0  0  0
 15 16  1  0  0  0  0
 15 32  1  0  0  0  0
 16 17  1  0  0  0  0
 17 33  1  0  0  0  0
 17 34  1  0  0  0  0
 17 35  1  0  0  0  0
 18 19  1  0  0  0  0
 18 20  2  0  0  0  0
 20 21  1  0  0  0  0
 21 22  1  0  0  0  0
 22 36  1  0  0  0  0
M  END
$$$$
