CHEMBL3904510
 OpenBabel04072215373D

 71 75  0  0  1  0  0  0  0  0999 V2000
   -0.8429    1.9787   -0.3160 C   0  0  0  0  0  0  0  0  0  0  0  0
   -0.0082    1.9491    0.8331 O   0  0  0  0  0  0  0  0  0  0  0  0
    0.5643    0.7682    1.2082 C   0  0  0  0  0  0  0  0  0  0  0  0
    0.7481    0.6685    2.5916 C   0  0  0  0  0  0  0  0  0  0  0  0
    1.3407   -0.4764    3.1786 C   0  0  0  0  0  0  0  0  0  0  0  0
    1.5144   -0.7013    4.5500 C   0  0  0  0  0  0  0  0  0  0  0  0
    1.0452    0.2606    5.4825 N   0  0  0  0  0  0  0  0  0  0  0  0
    1.4871    0.3090    6.8204 C   0  0  0  0  0  0  0  0  0  0  0  0
    2.8592    0.2614    7.1117 C   0  0  0  0  0  0  0  0  0  0  0  0
    3.3161    0.2371    8.4274 C   0  0  0  0  0  0  0  0  0  0  0  0
    2.3970    0.2742    9.4762 C   0  0  0  0  0  0  0  0  0  0  0  0
    3.0192    0.1894   11.0849 Cl  0  0  0  0  0  0  0  0  0  0  0  0
    1.0257    0.3681    9.1963 C   0  0  0  0  0  0  0  0  0  0  0  0
   -0.1635    0.4223   10.4494 Cl  0  0  0  0  0  0  0  0  0  0  0  0
    0.5780    0.3990    7.8745 C   0  0  0  0  0  0  0  0  0  0  0  0
    2.1150   -1.8120    5.0265 N   0  0  0  0  0  0  0  0  0  0  0  0
    2.5442   -2.7029    4.1339 C   0  0  0  0  0  0  0  0  0  0  0  0
    2.4401   -2.5867    2.8111 N   0  0  0  0  0  0  0  0  0  0  0  0
    1.8421   -1.4831    2.3577 C   0  0  0  0  0  0  0  0  0  0  0  0
    1.7158   -1.3403    0.9929 C   0  0  0  0  0  0  0  0  0  0  0  0
    1.0186   -0.2740    0.3974 C   0  0  0  0  0  0  0  0  0  0  0  0
    0.8064   -0.2231   -0.9556 O   0  0  0  0  0  0  0  0  0  0  0  0
    0.7888   -1.4982   -1.6163 C   0  0  0  0  0  0  0  0  0  0  0  0
   -0.3661   -1.7252   -2.5116 C   0  0  0  0  0  0  0  0  0  0  0  0
   -1.0252   -0.7736   -3.1823 N   0  0  0  0  0  0  0  0  0  0  0  0
   -1.9523   -1.5084   -3.9297 O   0  0  0  0  0  0  0  0  0  0  0  0
   -1.7220   -2.8274   -3.6460 C   0  0  0  0  0  0  0  0  0  0  0  0
   -2.4045   -3.8559   -4.4791 C   0  0  3  0  0  0  0  0  0  0  0  0
   -2.2493   -3.4653   -5.9552 C   0  0  0  0  0  0  0  0  0  0  0  0
   -2.8193   -4.5304   -6.8770 C   0  0  0  0  0  0  0  0  0  0  0  0
   -4.2576   -4.8654   -6.4875 C   0  0  0  0  0  0  0  0  0  0  0  0
   -4.3811   -5.2321   -5.0071 C   0  0  0  0  0  0  0  0  0  0  0  0
   -3.8111   -4.1796   -4.1676 N   0  0  0  0  0  0  0  0  0  0  0  0
   -4.4423   -3.6795   -3.0391 C   0  0  0  0  0  0  0  0  0  0  0  0
   -3.9357   -2.8424   -2.3062 O   0  0  0  0  0  0  0  0  0  0  0  0
   -5.6910   -4.1879   -2.8181 O   0  0  0  0  0  0  0  0  0  0  0  0
   -6.4351   -3.7111   -1.6566 C   0  0  0  0  0  0  0  0  0  0  0  0
   -6.7672   -2.2139   -1.7738 C   0  0  0  0  0  0  0  0  0  0  0  0
   -7.7650   -4.4835   -1.6468 C   0  0  0  0  0  0  0  0  0  0  0  0
   -5.7027   -4.0365   -0.3439 C   0  0  0  0  0  0  0  0  0  0  0  0
   -0.7586   -3.0125   -2.7768 N   0  0  0  0  0  0  0  0  0  0  0  0
   -1.7298    2.5672   -0.0526 H   0  0  0  0  0  0  0  0  0  0  0  0
   -1.2016    1.0000   -0.6412 H   0  0  0  0  0  0  0  0  0  0  0  0
   -0.3279    2.5008   -1.1288 H   0  0  0  0  0  0  0  0  0  0  0  0
    0.4207    1.4962    3.2180 H   0  0  0  0  0  0  0  0  0  0  0  0
    0.0420    0.3744    5.3732 H   0  0  0  0  0  0  0  0  0  0  0  0
    3.5806    0.2094    6.2984 H   0  0  0  0  0  0  0  0  0  0  0  0
    4.3805    0.1632    8.6153 H   0  0  0  0  0  0  0  0  0  0  0  0
   -0.4907    0.4489    7.6712 H   0  0  0  0  0  0  0  0  0  0  0  0
    3.0178   -3.6000    4.5158 H   0  0  0  0  0  0  0  0  0  0  0  0
    2.1860   -2.1180    0.3966 H   0  0  0  0  0  0  0  0  0  0  0  0
    0.7317   -2.3420   -0.9192 H   0  0  0  0  0  0  0  0  0  0  0  0
    1.7168   -1.5966   -2.1895 H   0  0  0  0  0  0  0  0  0  0  0  0
   -1.8550   -4.7946   -4.3124 H   0  0  0  0  0  0  0  0  0  0  0  0
   -1.1910   -3.2964   -6.1931 H   0  0  0  0  0  0  0  0  0  0  0  0
   -2.7703   -2.5170   -6.1450 H   0  0  0  0  0  0  0  0  0  0  0  0
   -2.1946   -5.4299   -6.8260 H   0  0  0  0  0  0  0  0  0  0  0  0
   -2.7832   -4.1683   -7.9103 H   0  0  0  0  0  0  0  0  0  0  0  0
   -4.6228   -5.6868   -7.1118 H   0  0  0  0  0  0  0  0  0  0  0  0
   -4.8896   -3.9919   -6.6894 H   0  0  0  0  0  0  0  0  0  0  0  0
   -3.8224   -6.1546   -4.8001 H   0  0  0  0  0  0  0  0  0  0  0  0
   -5.4278   -5.4266   -4.7608 H   0  0  0  0  0  0  0  0  0  0  0  0
   -7.3531   -2.0166   -2.6790 H   0  0  0  0  0  0  0  0  0  0  0  0
   -5.8760   -1.5848   -1.8430 H   0  0  0  0  0  0  0  0  0  0  0  0
   -7.3432   -1.8661   -0.9090 H   0  0  0  0  0  0  0  0  0  0  0  0
   -8.3299   -4.3112   -2.5694 H   0  0  0  0  0  0  0  0  0  0  0  0
   -8.3936   -4.1853   -0.7987 H   0  0  0  0  0  0  0  0  0  0  0  0
   -7.5907   -5.5628   -1.5813 H   0  0  0  0  0  0  0  0  0  0  0  0
   -4.7498   -3.5100   -0.2468 H   0  0  0  0  0  0  0  0  0  0  0  0
   -5.4731   -5.1064   -0.2867 H   0  0  0  0  0  0  0  0  0  0  0  0
   -6.3069   -3.7628    0.5278 H   0  0  0  0  0  0  0  0  0  0  0  0
  1  2  1  0  0  0  0
  1 42  1  0  0  0  0
  1 43  1  0  0  0  0
  1 44  1  0  0  0  0
  2  3  1  0  0  0  0
  3  4  1  0  0  0  0
  3 21  2  0  0  0  0
  4  5  2  0  0  0  0
  4 45  1  0  0  0  0
  5  6  1  0  0  0  0
  5 19  1  0  0  0  0
  6  7  1  0  0  0  0
  6 16  2  0  0  0  0
  7  8  1  0  0  0  0
  7 46  1  0  0  0  0
  8  9  1  0  0  0  0
  8 15  2  0  0  0  0
  9 10  2  0  0  0  0
  9 47  1  0  0  0  0
 10 11  1  0  0  0  0
 10 48  1  0  0  0  0
 11 12  1  0  0  0  0
 11 13  2  0  0  0  0
 13 14  1  0  0  0  0
 13 15  1  0  0  0  0
 15 49  1  0  0  0  0
 16 17  1  0  0  0  0
 17 18  2  0  0  0  0
 17 50  1  0  0  0  0
 18 19  1  0  0  0  0
 19 20  2  0  0  0  0
 20 21  1  0  0  0  0
 20 51  1  0  0  0  0
 21 22  1  0  0  0  0
 22 23  1  0  0  0  0
 23 24  1  0  0  0  0
 23 52  1  0  0  0  0
 23 53  1  0  0  0  0
 24 25  2  0  0  0  0
 24 41  1  0  0  0  0
 25 26  1  0  0  0  0
 26 27  1  0  0  0  0
 27 28  1  0  0  0  0
 27 41  2  0  0  0  0
 28 29  1  0  0  0  0
 28 33  1  0  0  0  0
 28 54  1  0  0  0  0
 29 30  1  0  0  0  0
 29 55  1  0  0  0  0
 29 56  1  0  0  0  0
 30 31  1  0  0  0  0
 30 57  1  0  0  0  0
 30 58  1  0  0  0  0
 31 32  1  0  0  0  0
 31 59  1  0  0  0  0
 31 60  1  0  0  0  0
 32 33  1  0  0  0  0
 32 61  1  0  0  0  0
 32 62  1  0  0  0  0
 33 34  1  0  0  0  0
 34 35  2  0  0  0  0
 34 36  1  0  0  0  0
 36 37  1  0  0  0  0
 37 38  1  0  0  0  0
 37 39  1  0  0  0  0
 37 40  1  0  0  0  0
 38 63  1  0  0  0  0
 38 64  1  0  0  0  0
 38 65  1  0  0  0  0
 39 66  1  0  0  0  0
 39 67  1  0  0  0  0
 39 68  1  0  0  0  0
 40 69  1  0  0  0  0
 40 70  1  0  0  0  0
 40 71  1  0  0  0  0
M  END
$$$$
