CHEMBL3966485
 OpenBabel04072215373D

 46 49  0  0  0  0  0  0  0  0999 V2000
    2.1873   -0.6906    0.7824 N   0  0  0  0  0  0  0  0  0  0  0  0
    1.9495   -1.3313   -0.3984 C   0  0  0  0  0  0  0  0  0  0  0  0
    0.9271   -1.9365   -0.6826 O   0  0  0  0  0  0  0  0  0  0  0  0
    2.9751   -1.1283   -1.3426 N   0  0  0  0  0  0  0  0  0  0  0  0
    4.3665   -1.2403   -1.1626 C   0  0  0  0  0  0  0  0  0  0  0  0
    5.0691   -1.7180    0.0478 C   0  0  0  0  0  0  0  0  0  0  0  0
    4.5206   -2.6811    0.9028 C   0  0  0  0  0  0  0  0  0  0  0  0
    5.1944   -3.0752    2.0592 C   0  0  0  0  0  0  0  0  0  0  0  0
    6.4562   -2.5589    2.3452 C   0  0  0  0  0  0  0  0  0  0  0  0
    7.0638   -1.6549    1.4737 C   0  0  0  0  0  0  0  0  0  0  0  0
    8.3560   -1.1327    1.7009 N   0  0  0  0  0  0  0  0  0  0  0  0
    9.3173   -1.7197    2.5071 C   0  0  0  0  0  0  0  0  0  0  0  0
    9.2525   -2.8508    2.9738 O   0  0  0  0  0  0  0  0  0  0  0  0
   10.3573   -0.8384    2.7645 N   0  0  0  0  0  0  0  0  0  0  0  0
   11.4643   -1.2310    3.5453 C   0  0  0  0  0  0  0  0  0  0  0  0
   11.9088   -0.3796    4.5614 C   0  0  0  0  0  0  0  0  0  0  0  0
   12.9830   -0.7572    5.3747 C   0  0  0  0  0  0  0  0  0  0  0  0
   13.6328   -1.9667    5.1367 C   0  0  0  0  0  0  0  0  0  0  0  0
   14.6730   -2.2973    5.9149 F   0  0  0  0  0  0  0  0  0  0  0  0
   13.2152   -2.8062    4.1063 C   0  0  0  0  0  0  0  0  0  0  0  0
   14.0486   -4.2796    3.7872 Cl  0  0  0  0  0  0  0  0  0  0  0  0
   12.1227   -2.4470    3.3172 C   0  0  0  0  0  0  0  0  0  0  0  0
    6.3547   -1.2208    0.3465 C   0  0  0  0  0  0  0  0  0  0  0  0
    4.9512   -0.8689   -2.3663 C   0  0  0  0  0  0  0  0  0  0  0  0
    3.9455   -0.4720   -3.2740 C   0  0  0  0  0  0  0  0  0  0  0  0
    3.9704    0.0512   -4.5814 C   0  0  0  0  0  0  0  0  0  0  0  0
    2.7691    0.3916   -5.2094 C   0  0  0  0  0  0  0  0  0  0  0  0
    1.5544    0.1923   -4.5630 C   0  0  0  0  0  0  0  0  0  0  0  0
    1.5080   -0.3498   -3.2762 C   0  0  0  0  0  0  0  0  0  0  0  0
    2.7225   -0.6730   -2.6411 C   0  0  0  0  0  0  0  0  0  0  0  0
    1.4378   -0.6784    1.4608 H   0  0  0  0  0  0  0  0  0  0  0  0
    2.9323   -0.0133    0.8826 H   0  0  0  0  0  0  0  0  0  0  0  0
    3.5597   -3.1459    0.6952 H   0  0  0  0  0  0  0  0  0  0  0  0
    4.7416   -3.7953    2.7366 H   0  0  0  0  0  0  0  0  0  0  0  0
    6.9453   -2.8831    3.2603 H   0  0  0  0  0  0  0  0  0  0  0  0
    8.7096   -0.4630    1.0319 H   0  0  0  0  0  0  0  0  0  0  0  0
   10.0523    0.1196    2.8605 H   0  0  0  0  0  0  0  0  0  0  0  0
   11.3929    0.5544    4.7705 H   0  0  0  0  0  0  0  0  0  0  0  0
   13.3020   -0.1316    6.1962 H   0  0  0  0  0  0  0  0  0  0  0  0
   11.7955   -3.1092    2.5227 H   0  0  0  0  0  0  0  0  0  0  0  0
    6.8152   -0.4990   -0.3226 H   0  0  0  0  0  0  0  0  0  0  0  0
    6.0137   -0.8707   -2.5744 H   0  0  0  0  0  0  0  0  0  0  0  0
    4.9159    0.2134   -5.0909 H   0  0  0  0  0  0  0  0  0  0  0  0
    2.7867    0.8192   -6.2087 H   0  0  0  0  0  0  0  0  0  0  0  0
    0.6266    0.4660   -5.0603 H   0  0  0  0  0  0  0  0  0  0  0  0
    0.5523   -0.4934   -2.7774 H   0  0  0  0  0  0  0  0  0  0  0  0
  1  2  1  0  0  0  0
  1 31  1  0  0  0  0
  1 32  1  0  0  0  0
  2  3  2  0  0  0  0
  2  4  1  0  0  0  0
  4  5  1  0  0  0  0
  4 30  1  0  0  0  0
  5  6  1  0  0  0  0
  5 24  2  0  0  0  0
  6  7  1  0  0  0  0
  6 23  2  0  0  0  0
  7  8  2  0  0  0  0
  7 33  1  0  0  0  0
  8  9  1  0  0  0  0
  8 34  1  0  0  0  0
  9 10  2  0  0  0  0
  9 35  1  0  0  0  0
 10 11  1  0  0  0  0
 10 23  1  0  0  0  0
 11 12  1  0  0  0  0
 11 36  1  0  0  0  0
 12 13  2  0  0  0  0
 12 14  1  0  0  0  0
 14 15  1  0  0  0  0
 14 37  1  0  0  0  0
 15 16  1  0  0  0  0
 15 22  2  0  0  0  0
 16 17  2  0  0  0  0
 16 38  1  0  0  0  0
 17 18  1  0  0  0  0
 17 39  1  0  0  0  0
 18 19  1  0  0  0  0
 18 20  2  0  0  0  0
 20 21  1  0  0  0  0
 20 22  1  0  0  0  0
 22 40  1  0  0  0  0
 23 41  1  0  0  0  0
 24 25  1  0  0  0  0
 24 42  1  0  0  0  0
 25 26  1  0  0  0  0
 25 30  2  0  0  0  0
 26 27  2  0  0  0  0
 26 43  1  0  0  0  0
 27 28  1  0  0  0  0
 27 44  1  0  0  0  0
 28 29  2  0  0  0  0
 28 45  1  0  0  0  0
 29 30  1  0  0  0  0
 29 46  1  0  0  0  0
M  END
$$$$
