CHEMBL1682344
 OpenBabel04072215363D

 21 23  0  0  0  0  0  0  0  0999 V2000
    2.2027    0.6904    0.0195 C   0  0  0  0  0  0  0  0  0  0  0  0
    0.9969    1.4053    0.0165 C   0  0  0  0  0  0  0  0  0  0  0  0
   -0.1818    0.6566   -0.0050 C   0  0  0  0  0  0  0  0  0  0  0  0
   -1.5011    1.0288   -0.0045 N   0  0  0  0  0  0  0  0  0  0  0  0
   -2.3633   -0.0035   -0.0196 N   0  0  0  0  0  0  0  0  0  0  0  0
   -1.5648   -1.0742   -0.0291 C   0  0  0  0  0  0  0  0  0  0  0  0
   -0.1950   -0.7326   -0.0263 C   0  0  0  0  0  0  0  0  0  0  0  0
    1.0241   -1.4336   -0.0330 C   0  0  0  0  0  0  0  0  0  0  0  0
    2.2310   -0.7126   -0.0107 C   0  0  0  0  0  0  0  0  0  0  0  0
    3.5067   -1.4021   -0.0036 C   0  0  0  0  0  0  0  0  0  0  0  0
    3.7790   -2.6392   -0.5429 C   0  0  0  0  0  0  0  0  0  0  0  0
    5.1008   -2.8289   -0.2736 N   0  0  0  0  0  0  0  0  0  0  0  0
    5.6255   -1.7828    0.3797 N   0  0  0  0  0  0  0  0  0  0  0  0
    4.6560   -0.8914    0.5437 N   0  0  0  0  0  0  0  0  0  0  0  0
    3.1382    1.2497    0.0409 H   0  0  0  0  0  0  0  0  0  0  0  0
    0.9898    2.4902    0.0352 H   0  0  0  0  0  0  0  0  0  0  0  0
   -1.8777    1.9694    0.0114 H   0  0  0  0  0  0  0  0  0  0  0  0
   -2.0099   -2.0606   -0.0369 H   0  0  0  0  0  0  0  0  0  0  0  0
    1.0159   -2.5189   -0.0344 H   0  0  0  0  0  0  0  0  0  0  0  0
    3.1866   -3.3647   -1.0786 H   0  0  0  0  0  0  0  0  0  0  0  0
    5.7007   -3.6150   -0.4964 H   0  0  0  0  0  0  0  0  0  0  0  0
  1  2  1  0  0  0  0
  1  9  2  0  0  0  0
  1 15  1  0  0  0  0
  2  3  2  0  0  0  0
  2 16  1  0  0  0  0
  3  4  1  0  0  0  0
  3  7  1  0  0  0  0
  4  5  1  0  0  0  0
  4 17  1  0  0  0  0
  5  6  2  0  0  0  0
  6  7  1  0  0  0  0
  6 18  1  0  0  0  0
  7  8  2  0  0  0  0
  8  9  1  0  0  0  0
  8 19  1  0  0  0  0
  9 10  1  0  0  0  0
 10 11  2  0  0  0  0
 10 14  1  0  0  0  0
 11 12  1  0  0  0  0
 11 20  1  0  0  0  0
 12 13  1  0  0  0  0
 12 21  1  0  0  0  0
 13 14  2  0  0  0  0
M  END
$$$$
