CHEMBL3827180
 OpenBabel04072215373D

 51 55  0  0  1  0  0  0  0  0999 V2000
    4.0740    0.7487   -0.7653 C   0  0  0  0  0  0  0  0  0  0  0  0
    3.9711    0.2917    0.6973 C   0  0  3  0  0  0  0  0  0  0  0  0
    2.6957    0.6459    1.2624 O   0  0  0  0  0  0  0  0  0  0  0  0
    2.4683    1.9803    1.5164 C   0  0  0  0  0  0  0  0  0  0  0  0
    1.1287    2.3809    1.4674 C   0  0  0  0  0  0  0  0  0  0  0  0
    0.7451    3.7138    1.6769 C   0  0  0  0  0  0  0  0  0  0  0  0
    1.7577    4.6250    1.9897 C   0  0  0  0  0  0  0  0  0  0  0  0
    1.7297    5.9657    2.2664 N   0  0  0  0  0  0  0  0  0  0  0  0
    2.9226    6.4869    2.6115 N   0  0  0  0  0  0  0  0  0  0  0  0
    3.7599    5.4423    2.5028 C   0  0  0  0  0  0  0  0  0  0  0  0
    5.2063    5.5780    2.8299 C   0  0  0  0  0  0  0  0  0  0  0  0
    6.1332    4.6474    2.6881 N   0  0  0  0  0  0  0  0  0  0  0  0
    7.2959    5.2247    3.1356 C   0  0  0  0  0  0  0  0  0  0  0  0
    8.5933    4.6925    3.1967 C   0  0  0  0  0  0  0  0  0  0  0  0
    9.6345    5.4839    3.7145 C   0  0  0  0  0  0  0  0  0  0  0  0
   11.0446    4.9401    3.7750 C   0  0  0  0  0  0  0  0  0  0  0  0
   11.8432    5.1935    2.4962 C   0  0  0  0  0  0  0  0  0  0  0  0
   12.0489    6.5854    2.2740 O   0  0  0  0  0  0  0  0  0  0  0  0
    9.3609    6.7884    4.1638 C   0  0  0  0  0  0  0  0  0  0  0  0
    8.0747    7.3380    4.1048 C   0  0  0  0  0  0  0  0  0  0  0  0
    7.0743    6.5255    3.5758 C   0  0  0  0  0  0  0  0  0  0  0  0
    5.7402    6.7262    3.3534 N   0  0  0  0  0  0  0  0  0  0  0  0
    3.0929    4.2567    2.0976 C   0  0  0  0  0  0  0  0  0  0  0  0
    3.4566    2.9154    1.8496 C   0  0  0  0  0  0  0  0  0  0  0  0
    4.2303   -1.2035    0.8737 C   0  0  0  0  0  0  0  0  0  0  0  0
    5.2909   -1.6549    1.6915 C   0  0  0  0  0  0  0  0  0  0  0  0
    6.2957   -0.6037    2.6298 Cl  0  0  0  0  0  0  0  0  0  0  0  0
    5.5775   -3.0179    1.7690 C   0  0  0  0  0  0  0  0  0  0  0  0
    4.8975   -3.9745    1.1046 N   0  0  0  0  0  0  0  0  0  0  0  0
    3.8606   -3.5422    0.3549 C   0  0  0  0  0  0  0  0  0  0  0  0
    3.4838   -2.2022    0.2195 C   0  0  0  0  0  0  0  0  0  0  0  0
    2.0922   -1.8836   -0.7478 Cl  0  0  0  0  0  0  0  0  0  0  0  0
    4.2229    1.8343   -0.8079 H   0  0  0  0  0  0  0  0  0  0  0  0
    3.1577    0.5610   -1.3294 H   0  0  0  0  0  0  0  0  0  0  0  0
    4.9175    0.2789   -1.2775 H   0  0  0  0  0  0  0  0  0  0  0  0
    4.7618    0.8163    1.2260 H   0  0  0  0  0  0  0  0  0  0  0  0
    0.3621    1.6408    1.2507 H   0  0  0  0  0  0  0  0  0  0  0  0
   -0.2967    4.0124    1.6170 H   0  0  0  0  0  0  0  0  0  0  0  0
    0.9217    6.5784    2.2614 H   0  0  0  0  0  0  0  0  0  0  0  0
    8.7682    3.6799    2.8488 H   0  0  0  0  0  0  0  0  0  0  0  0
   11.0032    3.8612    3.9688 H   0  0  0  0  0  0  0  0  0  0  0  0
   11.5614    5.3904    4.6318 H   0  0  0  0  0  0  0  0  0  0  0  0
   11.3548    4.7663    1.6143 H   0  0  0  0  0  0  0  0  0  0  0  0
   12.8322    4.7324    2.5893 H   0  0  0  0  0  0  0  0  0  0  0  0
   11.1783    6.9641    2.0526 H   0  0  0  0  0  0  0  0  0  0  0  0
   10.1705    7.3979    4.5706 H   0  0  0  0  0  0  0  0  0  0  0  0
    7.8763    8.3445    4.4554 H   0  0  0  0  0  0  0  0  0  0  0  0
    5.1982    7.5578    3.5518 H   0  0  0  0  0  0  0  0  0  0  0  0
    4.5026    2.6543    1.9605 H   0  0  0  0  0  0  0  0  0  0  0  0
    6.3951   -3.3870    2.3852 H   0  0  0  0  0  0  0  0  0  0  0  0
    3.3214   -4.3331   -0.1602 H   0  0  0  0  0  0  0  0  0  0  0  0
  1  2  1  0  0  0  0
  1 33  1  0  0  0  0
  1 34  1  0  0  0  0
  1 35  1  0  0  0  0
  2  3  1  0  0  0  0
  2 25  1  0  0  0  0
  2 36  1  0  0  0  0
  3  4  1  0  0  0  0
  4  5  1  0  0  0  0
  4 24  2  0  0  0  0
  5  6  2  0  0  0  0
  5 37  1  0  0  0  0
  6  7  1  0  0  0  0
  6 38  1  0  0  0  0
  7  8  1  0  0  0  0
  7 23  2  0  0  0  0
  8  9  1  0  0  0  0
  8 39  1  0  0  0  0
  9 10  2  0  0  0  0
 10 11  1  0  0  0  0
 10 23  1  0  0  0  0
 11 12  2  0  0  0  0
 11 22  1  0  0  0  0
 12 13  1  0  0  0  0
 13 14  1  0  0  0  0
 13 21  2  0  0  0  0
 14 15  2  0  0  0  0
 14 40  1  0  0  0  0
 15 16  1  0  0  0  0
 15 19  1  0  0  0  0
 16 17  1  0  0  0  0
 16 41  1  0  0  0  0
 16 42  1  0  0  0  0
 17 18  1  0  0  0  0
 17 43  1  0  0  0  0
 17 44  1  0  0  0  0
 18 45  1  0  0  0  0
 19 20  2  0  0  0  0
 19 46  1  0  0  0  0
 20 21  1  0  0  0  0
 20 47  1  0  0  0  0
 21 22  1  0  0  0  0
 22 48  1  0  0  0  0
 23 24  1  0  0  0  0
 24 49  1  0  0  0  0
 25 26  1  0  0  0  0
 25 31  2  0  0  0  0
 26 27  1  0  0  0  0
 26 28  2  0  0  0  0
 28 29  1  0  0  0  0
 28 50  1  0  0  0  0
 29 30  2  0  0  0  0
 30 31  1  0  0  0  0
 30 51  1  0  0  0  0
 31 32  1  0  0  0  0
M  END
$$$$
