CHEMBL190161
 OpenBabel04072215363D

 83 86  0  0  0  0  0  0  0  0999 V2000
    1.5638   -5.2243   -0.4583 C   0  0  0  0  0  0  0  0  0  0  0  0
    2.9126   -4.7832   -0.3917 O   0  0  0  0  0  0  0  0  0  0  0  0
    3.1516   -3.6700    0.3693 C   0  0  0  0  0  0  0  0  0  0  0  0
    2.1809   -2.8665    0.9638 C   0  0  0  0  0  0  0  0  0  0  0  0
    2.5689   -1.7784    1.7423 C   0  0  0  0  0  0  0  0  0  0  0  0
    1.7138   -0.9636    2.4343 O   0  0  0  0  0  0  0  0  0  0  0  0
    0.5033   -1.5788    2.8674 C   0  0  0  0  0  0  0  0  0  0  0  0
    3.9232   -1.4663    1.8657 C   0  0  0  0  0  0  0  0  0  0  0  0
    4.9298   -2.2816    1.3073 C   0  0  0  0  0  0  0  0  0  0  0  0
    6.3586   -2.0663    1.6492 C   0  0  0  0  0  0  0  0  0  0  0  0
    6.6502   -1.6518    2.9618 C   0  0  0  0  0  0  0  0  0  0  0  0
    7.9623   -1.4956    3.4063 C   0  0  0  0  0  0  0  0  0  0  0  0
    8.2596   -1.0543    4.6894 C   0  0  0  0  0  0  0  0  0  0  0  0
    9.5112   -0.8876    5.1538 N   0  0  0  0  0  0  0  0  0  0  0  0
   10.5238   -1.1361    4.3100 C   0  0  0  0  0  0  0  0  0  0  0  0
   11.8162   -0.8344    4.7239 N   0  0  0  0  0  0  0  0  0  0  0  0
   12.0854   -0.8765    6.1582 C   0  0  0  0  0  0  0  0  0  0  0  0
   13.5525   -0.5258    6.4198 C   0  0  0  0  0  0  0  0  0  0  0  0
   13.8777    0.9003    5.9621 C   0  0  0  0  0  0  0  0  0  0  0  0
   15.3459    1.2874    6.1721 C   0  0  0  0  0  0  0  0  0  0  0  0
   16.3123    0.4220    5.4796 N   0  0  0  0  0  0  0  0  0  0  0  0
   16.1228    0.4051    4.0158 C   0  0  0  0  0  0  0  0  0  0  0  0
   17.1925   -0.4463    3.2914 C   0  0  0  0  0  0  0  0  0  0  0  0
   18.5893   -0.0796    3.5912 N   0  0  0  0  0  0  0  0  0  0  0  0
   18.9640    1.1739    2.9410 C   0  0  0  0  0  0  0  0  0  0  0  0
   18.7566   -0.0078    5.0569 C   0  0  0  0  0  0  0  0  0  0  0  0
   17.6939    0.8403    5.7969 C   0  0  0  0  0  0  0  0  0  0  0  0
   10.2992   -1.5918    3.0017 C   0  0  0  0  0  0  0  0  0  0  0  0
    9.0022   -1.7994    2.5334 C   0  0  0  0  0  0  0  0  0  0  0  0
    8.7593   -2.2767    1.2822 N   0  0  0  0  0  0  0  0  0  0  0  0
    7.4730   -2.3542    0.8390 C   0  0  0  0  0  0  0  0  0  0  0  0
    7.3288   -2.8537   -0.4850 N   0  0  0  0  0  0  0  0  0  0  0  0
    7.1642   -1.9391   -1.5124 C   0  0  0  0  0  0  0  0  0  0  0  0
    7.1295   -0.7209   -1.3482 O   0  0  0  0  0  0  0  0  0  0  0  0
    7.0954   -2.5497   -2.7548 N   0  0  0  0  0  0  0  0  0  0  0  0
    7.0616   -1.7992   -4.0362 C   0  0  0  0  0  0  0  0  0  0  0  0
    8.3914   -1.0528   -4.2414 C   0  0  0  0  0  0  0  0  0  0  0  0
    6.8862   -2.7719   -5.2268 C   0  0  0  0  0  0  0  0  0  0  0  0
    5.8920   -0.8017   -4.0937 C   0  0  0  0  0  0  0  0  0  0  0  0
    4.5086   -3.3831    0.5618 C   0  0  0  0  0  0  0  0  0  0  0  0
    1.5470   -6.1593   -1.0239 H   0  0  0  0  0  0  0  0  0  0  0  0
    0.9445   -4.4960   -0.9906 H   0  0  0  0  0  0  0  0  0  0  0  0
    1.1669   -5.4300    0.5410 H   0  0  0  0  0  0  0  0  0  0  0  0
    1.1290   -3.0740    0.8315 H   0  0  0  0  0  0  0  0  0  0  0  0
    0.1230   -1.0098    3.7212 H   0  0  0  0  0  0  0  0  0  0  0  0
    0.6571   -2.6105    3.2060 H   0  0  0  0  0  0  0  0  0  0  0  0
   -0.2448   -1.5395    2.0702 H   0  0  0  0  0  0  0  0  0  0  0  0
    4.1849   -0.5922    2.4602 H   0  0  0  0  0  0  0  0  0  0  0  0
    5.8489   -1.4691    3.6728 H   0  0  0  0  0  0  0  0  0  0  0  0
    7.4790   -0.8047    5.4024 H   0  0  0  0  0  0  0  0  0  0  0  0
   12.5647   -1.1350    4.1163 H   0  0  0  0  0  0  0  0  0  0  0  0
   11.8877   -1.8789    6.5599 H   0  0  0  0  0  0  0  0  0  0  0  0
   11.4475   -0.1664    6.6989 H   0  0  0  0  0  0  0  0  0  0  0  0
   14.1946   -1.2529    5.9083 H   0  0  0  0  0  0  0  0  0  0  0  0
   13.7586   -0.6181    7.4935 H   0  0  0  0  0  0  0  0  0  0  0  0
   13.2488    1.6042    6.5208 H   0  0  0  0  0  0  0  0  0  0  0  0
   13.6103    1.0349    4.9082 H   0  0  0  0  0  0  0  0  0  0  0  0
   15.5466    1.2503    7.2508 H   0  0  0  0  0  0  0  0  0  0  0  0
   15.4756    2.3323    5.8620 H   0  0  0  0  0  0  0  0  0  0  0  0
   16.1279    1.4263    3.6143 H   0  0  0  0  0  0  0  0  0  0  0  0
   15.1516   -0.0367    3.7683 H   0  0  0  0  0  0  0  0  0  0  0  0
   17.0161   -0.4125    2.2091 H   0  0  0  0  0  0  0  0  0  0  0  0
   17.0506   -1.4976    3.5772 H   0  0  0  0  0  0  0  0  0  0  0  0
   18.8346    1.0935    1.8557 H   0  0  0  0  0  0  0  0  0  0  0  0
   20.0249    1.3866    3.1122 H   0  0  0  0  0  0  0  0  0  0  0  0
   18.3843    2.0356    3.2864 H   0  0  0  0  0  0  0  0  0  0  0  0
   19.7596    0.3614    5.3040 H   0  0  0  0  0  0  0  0  0  0  0  0
   18.7152   -1.0323    5.4506 H   0  0  0  0  0  0  0  0  0  0  0  0
   17.8401    1.9005    5.5522 H   0  0  0  0  0  0  0  0  0  0  0  0
   17.8667    0.7336    6.8749 H   0  0  0  0  0  0  0  0  0  0  0  0
   11.1287   -1.7839    2.3452 H   0  0  0  0  0  0  0  0  0  0  0  0
    8.1137   -3.4462   -0.7191 H   0  0  0  0  0  0  0  0  0  0  0  0
    6.6409   -3.4546   -2.7437 H   0  0  0  0  0  0  0  0  0  0  0  0
    9.2340   -1.7540   -4.2636 H   0  0  0  0  0  0  0  0  0  0  0  0
    8.5855   -0.3371   -3.4374 H   0  0  0  0  0  0  0  0  0  0  0  0
    8.3949   -0.4960   -5.1856 H   0  0  0  0  0  0  0  0  0  0  0  0
    7.7087   -3.4927   -5.2909 H   0  0  0  0  0  0  0  0  0  0  0  0
    6.8591   -2.2242   -6.1778 H   0  0  0  0  0  0  0  0  0  0  0  0
    5.9513   -3.3383   -5.1508 H   0  0  0  0  0  0  0  0  0  0  0  0
    5.9948   -0.0017   -3.3557 H   0  0  0  0  0  0  0  0  0  0  0  0
    4.9354   -1.3034   -3.9142 H   0  0  0  0  0  0  0  0  0  0  0  0
    5.8387   -0.3172   -5.0769 H   0  0  0  0  0  0  0  0  0  0  0  0
    5.2289   -4.0707    0.1222 H   0  0  0  0  0  0  0  0  0  0  0  0
  1  2  1  0  0  0  0
  1 41  1  0  0  0  0
  1 42  1  0  0  0  0
  1 43  1  0  0  0  0
  2  3  1  0  0  0  0
  3  4  1  0  0  0  0
  3 40  2  0  0  0  0
  4  5  2  0  0  0  0
  4 44  1  0  0  0  0
  5  6  1  0  0  0  0
  5  8  1  0  0  0  0
  6  7  1  0  0  0  0
  7 45  1  0  0  0  0
  7 46  1  0  0  0  0
  7 47  1  0  0  0  0
  8  9  2  0  0  0  0
  8 48  1  0  0  0  0
  9 10  1  0  0  0  0
  9 40  1  0  0  0  0
 10 11  1  0  0  0  0
 10 31  2  0  0  0  0
 11 12  2  0  0  0  0
 11 49  1  0  0  0  0
 12 13  1  0  0  0  0
 12 29  1  0  0  0  0
 13 14  2  0  0  0  0
 13 50  1  0  0  0  0
 14 15  1  0  0  0  0
 15 16  1  0  0  0  0
 15 28  2  0  0  0  0
 16 17  1  0  0  0  0
 16 51  1  0  0  0  0
 17 18  1  0  0  0  0
 17 52  1  0  0  0  0
 17 53  1  0  0  0  0
 18 19  1  0  0  0  0
 18 54  1  0  0  0  0
 18 55  1  0  0  0  0
 19 20  1  0  0  0  0
 19 56  1  0  0  0  0
 19 57  1  0  0  0  0
 20 21  1  0  0  0  0
 20 58  1  0  0  0  0
 20 59  1  0  0  0  0
 21 22  1  0  0  0  0
 21 27  1  0  0  0  0
 22 23  1  0  0  0  0
 22 60  1  0  0  0  0
 22 61  1  0  0  0  0
 23 24  1  0  0  0  0
 23 62  1  0  0  0  0
 23 63  1  0  0  0  0
 24 25  1  0  0  0  0
 24 26  1  0  0  0  0
 25 64  1  0  0  0  0
 25 65  1  0  0  0  0
 25 66  1  0  0  0  0
 26 27  1  0  0  0  0
 26 67  1  0  0  0  0
 26 68  1  0  0  0  0
 27 69  1  0  0  0  0
 27 70  1  0  0  0  0
 28 29  1  0  0  0  0
 28 71  1  0  0  0  0
 29 30  2  0  0  0  0
 30 31  1  0  0  0  0
 31 32  1  0  0  0  0
 32 33  1  0  0  0  0
 32 72  1  0  0  0  0
 33 34  2  0  0  0  0
 33 35  1  0  0  0  0
 35 36  1  0  0  0  0
 35 73  1  0  0  0  0
 36 37  1  0  0  0  0
 36 38  1  0  0  0  0
 36 39  1  0  0  0  0
 37 74  1  0  0  0  0
 37 75  1  0  0  0  0
 37 76  1  0  0  0  0
 38 77  1  0  0  0  0
 38 78  1  0  0  0  0
 38 79  1  0  0  0  0
 39 80  1  0  0  0  0
 39 81  1  0  0  0  0
 39 82  1  0  0  0  0
 40 83  1  0  0  0  0
M  END
$$$$
