CHEMBL3321910
 OpenBabel04072215363D

 41 45  0  0  0  0  0  0  0  0999 V2000
    1.3284    1.7101   -0.1050 Cl  0  0  0  0  0  0  0  0  0  0  0  0
   -0.1155    0.7645   -0.0404 C   0  0  0  0  0  0  0  0  0  0  0  0
   -1.2737    1.3088   -0.6029 C   0  0  0  0  0  0  0  0  0  0  0  0
   -2.4745    0.5920   -0.5800 C   0  0  0  0  0  0  0  0  0  0  0  0
   -2.5293   -0.6767    0.0094 C   0  0  0  0  0  0  0  0  0  0  0  0
   -3.7701   -1.4462    0.0805 C   0  0  0  0  0  0  0  0  0  0  0  0
   -4.0639   -2.3296    1.0147 N   0  0  0  0  0  0  0  0  0  0  0  0
   -5.3124   -2.8023    0.7110 C   0  0  0  0  0  0  0  0  0  0  0  0
   -6.1013   -3.7280    1.3955 C   0  0  0  0  0  0  0  0  0  0  0  0
   -7.3591   -4.0425    0.8681 C   0  0  0  0  0  0  0  0  0  0  0  0
   -7.8336   -3.4827   -0.3324 C   0  0  0  0  0  0  0  0  0  0  0  0
   -9.1418   -3.7672   -0.7962 N   0  0  0  0  0  0  0  0  0  0  0  0
   -9.8603   -4.9646   -0.5449 C   0  0  0  0  0  0  0  0  0  0  0  0
   -9.1596   -6.1055   -0.4161 N   0  0  0  0  0  0  0  0  0  0  0  0
   -9.8473   -7.2087   -0.1156 C   0  0  0  0  0  0  0  0  0  0  0  0
  -11.1667   -7.2805    0.0792 N   0  0  0  0  0  0  0  0  0  0  0  0
  -11.8558   -6.1469   -0.0619 C   0  0  0  0  0  0  0  0  0  0  0  0
  -13.2237   -6.1753    0.1761 C   0  0  0  0  0  0  0  0  0  0  0  0
  -14.0205   -5.0344    0.0542 C   0  0  0  0  0  0  0  0  0  0  0  0
  -13.4446   -3.8294   -0.3256 C   0  0  0  0  0  0  0  0  0  0  0  0
  -12.0704   -3.7701   -0.5556 C   0  0  0  0  0  0  0  0  0  0  0  0
  -11.2612   -4.9265   -0.4153 C   0  0  0  0  0  0  0  0  0  0  0  0
   -7.0498   -2.5260   -1.0023 C   0  0  0  0  0  0  0  0  0  0  0  0
   -5.7967   -2.2222   -0.4533 C   0  0  0  0  0  0  0  0  0  0  0  0
   -4.7941   -1.3685   -0.8375 N   0  0  0  0  0  0  0  0  0  0  0  0
   -1.3638   -1.2112    0.5800 C   0  0  0  0  0  0  0  0  0  0  0  0
   -0.1601   -0.5006    0.5518 C   0  0  0  0  0  0  0  0  0  0  0  0
    1.2304   -1.2411    1.2615 Cl  0  0  0  0  0  0  0  0  0  0  0  0
   -1.2510    2.2990   -1.0523 H   0  0  0  0  0  0  0  0  0  0  0  0
   -3.3640    1.0553   -0.9994 H   0  0  0  0  0  0  0  0  0  0  0  0
   -5.7498   -4.1804    2.3158 H   0  0  0  0  0  0  0  0  0  0  0  0
   -7.9753   -4.7448    1.4249 H   0  0  0  0  0  0  0  0  0  0  0  0
   -9.3256   -3.4441   -1.7382 H   0  0  0  0  0  0  0  0  0  0  0  0
   -9.2789   -8.1245   -0.0112 H   0  0  0  0  0  0  0  0  0  0  0  0
  -13.6821   -7.1142    0.4814 H   0  0  0  0  0  0  0  0  0  0  0  0
  -15.0859   -5.0939    0.2629 H   0  0  0  0  0  0  0  0  0  0  0  0
  -14.0585   -2.9377   -0.4243 H   0  0  0  0  0  0  0  0  0  0  0  0
  -11.6257   -2.8146   -0.8251 H   0  0  0  0  0  0  0  0  0  0  0  0
   -7.3952   -2.0433   -1.9090 H   0  0  0  0  0  0  0  0  0  0  0  0
   -4.7957   -0.7950   -1.6664 H   0  0  0  0  0  0  0  0  0  0  0  0
   -1.4020   -2.1925    1.0525 H   0  0  0  0  0  0  0  0  0  0  0  0
  1  2  1  0  0  0  0
  2  3  1  0  0  0  0
  2 27  2  0  0  0  0
  3  4  2  0  0  0  0
  3 29  1  0  0  0  0
  4  5  1  0  0  0  0
  4 30  1  0  0  0  0
  5  6  1  0  0  0  0
  5 26  2  0  0  0  0
  6  7  2  0  0  0  0
  6 25  1  0  0  0  0
  7  8  1  0  0  0  0
  8  9  1  0  0  0  0
  8 24  2  0  0  0  0
  9 10  2  0  0  0  0
  9 31  1  0  0  0  0
 10 11  1  0  0  0  0
 10 32  1  0  0  0  0
 11 12  1  0  0  0  0
 11 23  2  0  0  0  0
 12 13  1  0  0  0  0
 12 33  1  0  0  0  0
 13 14  1  0  0  0  0
 13 22  2  0  0  0  0
 14 15  2  0  0  0  0
 15 16  1  0  0  0  0
 15 34  1  0  0  0  0
 16 17  2  0  0  0  0
 17 18  1  0  0  0  0
 17 22  1  0  0  0  0
 18 19  2  0  0  0  0
 18 35  1  0  0  0  0
 19 20  1  0  0  0  0
 19 36  1  0  0  0  0
 20 21  2  0  0  0  0
 20 37  1  0  0  0  0
 21 22  1  0  0  0  0
 21 38  1  0  0  0  0
 23 24  1  0  0  0  0
 23 39  1  0  0  0  0
 24 25  1  0  0  0  0
 25 40  1  0  0  0  0
 26 27  1  0  0  0  0
 26 41  1  0  0  0  0
 27 28  1  0  0  0  0
M  END
$$$$
