CHEMBL405430
 OpenBabel04072215383D

 84 90  0  0  0  0  0  0  0  0999 V2000
    1.6676    0.5644   -1.3281 C   0  0  0  0  0  0  0  0  0  0  0  0
    2.1770   -0.0483   -0.1442 O   0  0  0  0  0  0  0  0  0  0  0  0
    2.8469   -1.2319   -0.3340 C   0  0  0  0  0  0  0  0  0  0  0  0
    2.3805   -2.1853   -1.2478 C   0  0  0  0  0  0  0  0  0  0  0  0
    3.0930   -3.3642   -1.5141 C   0  0  0  0  0  0  0  0  0  0  0  0
    2.5075   -4.2695   -2.4249 N   0  0  0  0  0  0  0  0  0  0  0  0
    3.0841   -5.4234   -2.9764 C   0  0  0  0  0  0  0  0  0  0  0  0
    2.3409   -6.4948   -2.6668 N   0  0  0  0  0  0  0  0  0  0  0  0
    2.7965   -7.6771   -3.0700 C   0  0  0  0  0  0  0  0  0  0  0  0
    3.9405   -7.7817   -3.8063 C   0  0  0  0  0  0  0  0  0  0  0  0
    4.2104   -9.0873   -4.3884 C   0  0  0  0  0  0  0  0  0  0  0  0
    4.2283  -10.0747   -3.6334 O   0  0  0  0  0  0  0  0  0  0  0  0
    4.3455   -9.0680   -5.7448 N   0  0  0  0  0  0  0  0  0  0  0  0
    5.1852  -10.0198   -6.4020 C   0  0  0  0  0  0  0  0  0  0  0  0
    4.7473  -10.5291   -7.6345 C   0  0  0  0  0  0  0  0  0  0  0  0
    3.3904  -10.2018   -8.2196 C   0  0  0  0  0  0  0  0  0  0  0  0
    5.5731  -11.4039   -8.3444 C   0  0  0  0  0  0  0  0  0  0  0  0
    6.8169  -11.7829   -7.8472 C   0  0  0  0  0  0  0  0  0  0  0  0
    7.2558  -11.2936   -6.6239 C   0  0  0  0  0  0  0  0  0  0  0  0
    6.4682  -10.3983   -5.8804 C   0  0  0  0  0  0  0  0  0  0  0  0
    7.0800   -9.9080   -4.5890 C   0  0  0  0  0  0  0  0  0  0  0  0
    4.2940   -7.8031   -6.3549 C   0  0  0  0  0  0  0  0  0  0  0  0
    4.2317   -7.4387   -7.6067 N   0  0  0  0  0  0  0  0  0  0  0  0
    5.5284   -7.0935   -7.7876 C   0  0  0  0  0  0  0  0  0  0  0  0
    6.2453   -7.4146   -8.9512 C   0  0  0  0  0  0  0  0  0  0  0  0
    7.5746   -7.7562   -8.7808 C   0  0  0  0  0  0  0  0  0  0  0  0
    8.2030   -7.5419   -7.5454 C   0  0  0  0  0  0  0  0  0  0  0  0
    7.5287   -6.9818   -6.4150 C   0  0  0  0  0  0  0  0  0  0  0  0
    6.1241   -6.8069   -6.5326 C   0  0  0  0  0  0  0  0  0  0  0  0
    4.9731   -6.7809   -5.6778 N   0  0  0  0  0  0  0  0  0  0  0  0
    4.5891   -6.6396   -4.2837 C   0  0  0  0  0  0  0  0  0  0  0  0
    4.1723   -5.4233   -3.8093 N   0  0  0  0  0  0  0  0  0  0  0  0
    4.2413   -3.6296   -0.7804 C   0  0  0  0  0  0  0  0  0  0  0  0
    4.6819   -2.7150    0.1872 C   0  0  0  0  0  0  0  0  0  0  0  0
    3.9807   -1.5290    0.4396 C   0  0  0  0  0  0  0  0  0  0  0  0
    4.5189   -0.7659    1.4534 O   0  0  0  0  0  0  0  0  0  0  0  0
    3.5872    0.0324    2.1931 C   0  0  0  0  0  0  0  0  0  0  0  0
    4.1037    0.2612    3.6199 C   0  0  0  0  0  0  0  0  0  0  0  0
    3.1006    1.0596    4.4759 C   0  0  0  0  0  0  0  0  0  0  0  0
    1.7650    0.4583    4.5040 N   0  0  0  0  0  0  0  0  0  0  0  0
    1.7169   -0.8602    5.1566 C   0  0  0  0  0  0  0  0  0  0  0  0
    0.3201   -1.4948    4.9741 C   0  0  0  0  0  0  0  0  0  0  0  0
   -0.8001   -0.6859    5.4938 N   0  0  0  0  0  0  0  0  0  0  0  0
   -0.8668   -0.7417    6.9506 C   0  0  0  0  0  0  0  0  0  0  0  0
   -0.6736    0.7024    5.0003 C   0  0  0  0  0  0  0  0  0  0  0  0
    0.7428    1.3319    5.1067 C   0  0  0  0  0  0  0  0  0  0  0  0
    1.1314    1.4697   -1.0277 H   0  0  0  0  0  0  0  0  0  0  0  0
    0.9428   -0.0624   -1.8550 H   0  0  0  0  0  0  0  0  0  0  0  0
    2.4833    0.8560   -1.9982 H   0  0  0  0  0  0  0  0  0  0  0  0
    1.4321   -2.0430   -1.7576 H   0  0  0  0  0  0  0  0  0  0  0  0
    1.6829   -4.6725   -1.9521 H   0  0  0  0  0  0  0  0  0  0  0  0
    2.1428   -8.5275   -2.8963 H   0  0  0  0  0  0  0  0  0  0  0  0
    2.7968   -9.5316   -7.5990 H   0  0  0  0  0  0  0  0  0  0  0  0
    2.8063  -11.1174   -8.3178 H   0  0  0  0  0  0  0  0  0  0  0  0
    3.5174   -9.7244   -9.1948 H   0  0  0  0  0  0  0  0  0  0  0  0
    5.2428  -11.8018   -9.3024 H   0  0  0  0  0  0  0  0  0  0  0  0
    7.4440  -12.4707   -8.4125 H   0  0  0  0  0  0  0  0  0  0  0  0
    8.2321  -11.6027   -6.2572 H   0  0  0  0  0  0  0  0  0  0  0  0
    8.1670  -10.0593   -4.5795 H   0  0  0  0  0  0  0  0  0  0  0  0
    6.6791  -10.4552   -3.7306 H   0  0  0  0  0  0  0  0  0  0  0  0
    6.9333   -8.8382   -4.4360 H   0  0  0  0  0  0  0  0  0  0  0  0
    5.7033   -7.6943   -9.8484 H   0  0  0  0  0  0  0  0  0  0  0  0
    8.0851   -8.2788   -9.5893 H   0  0  0  0  0  0  0  0  0  0  0  0
    9.2155   -7.9274   -7.4385 H   0  0  0  0  0  0  0  0  0  0  0  0
    8.0510   -6.9409   -5.4657 H   0  0  0  0  0  0  0  0  0  0  0  0
    4.7905   -4.5585   -0.9188 H   0  0  0  0  0  0  0  0  0  0  0  0
    5.5731   -2.9447    0.7657 H   0  0  0  0  0  0  0  0  0  0  0  0
    2.6176   -0.4720    2.2500 H   0  0  0  0  0  0  0  0  0  0  0  0
    3.4831    1.0017    1.6971 H   0  0  0  0  0  0  0  0  0  0  0  0
    5.0589    0.8012    3.5807 H   0  0  0  0  0  0  0  0  0  0  0  0
    4.3435   -0.7005    4.0898 H   0  0  0  0  0  0  0  0  0  0  0  0
    3.0280    2.0622    4.0339 H   0  0  0  0  0  0  0  0  0  0  0  0
    3.4957    1.1898    5.4902 H   0  0  0  0  0  0  0  0  0  0  0  0
    1.9674   -0.7765    6.2220 H   0  0  0  0  0  0  0  0  0  0  0  0
    2.4416   -1.5474    4.7098 H   0  0  0  0  0  0  0  0  0  0  0  0
    0.3085   -2.4964    5.4208 H   0  0  0  0  0  0  0  0  0  0  0  0
    0.1515   -1.6526    3.8997 H   0  0  0  0  0  0  0  0  0  0  0  0
   -0.9544   -1.7806    7.2886 H   0  0  0  0  0  0  0  0  0  0  0  0
   -1.7654   -0.2255    7.3070 H   0  0  0  0  0  0  0  0  0  0  0  0
    0.0027   -0.2942    7.4412 H   0  0  0  0  0  0  0  0  0  0  0  0
   -1.4043    1.3505    5.5008 H   0  0  0  0  0  0  0  0  0  0  0  0
   -0.9638    0.6999    3.9407 H   0  0  0  0  0  0  0  0  0  0  0  0
    0.9793    1.5374    6.1587 H   0  0  0  0  0  0  0  0  0  0  0  0
    0.7217    2.2961    4.5841 H   0  0  0  0  0  0  0  0  0  0  0  0
  1  2  1  0  0  0  0
  1 47  1  0  0  0  0
  1 48  1  0  0  0  0
  1 49  1  0  0  0  0
  2  3  1  0  0  0  0
  3  4  1  0  0  0  0
  3 35  2  0  0  0  0
  4  5  2  0  0  0  0
  4 50  1  0  0  0  0
  5  6  1  0  0  0  0
  5 33  1  0  0  0  0
  6  7  1  0  0  0  0
  6 51  1  0  0  0  0
  7  8  1  0  0  0  0
  7 32  2  0  0  0  0
  8  9  2  0  0  0  0
  9 10  1  0  0  0  0
  9 52  1  0  0  0  0
 10 11  1  0  0  0  0
 10 31  2  0  0  0  0
 11 12  2  0  0  0  0
 11 13  1  0  0  0  0
 13 14  1  0  0  0  0
 13 22  1  0  0  0  0
 14 15  1  0  0  0  0
 14 20  2  0  0  0  0
 15 16  1  0  0  0  0
 15 17  2  0  0  0  0
 16 53  1  0  0  0  0
 16 54  1  0  0  0  0
 16 55  1  0  0  0  0
 17 18  1  0  0  0  0
 17 56  1  0  0  0  0
 18 19  2  0  0  0  0
 18 57  1  0  0  0  0
 19 20  1  0  0  0  0
 19 58  1  0  0  0  0
 20 21  1  0  0  0  0
 21 59  1  0  0  0  0
 21 60  1  0  0  0  0
 21 61  1  0  0  0  0
 22 23  2  0  0  0  0
 22 30  1  0  0  0  0
 23 24  1  0  0  0  0
 24 25  1  0  0  0  0
 24 29  2  0  0  0  0
 25 26  2  0  0  0  0
 25 62  1  0  0  0  0
 26 27  1  0  0  0  0
 26 63  1  0  0  0  0
 27 28  2  0  0  0  0
 27 64  1  0  0  0  0
 28 29  1  0  0  0  0
 28 65  1  0  0  0  0
 29 30  1  0  0  0  0
 30 31  1  0  0  0  0
 31 32  1  0  0  0  0
 33 34  2  0  0  0  0
 33 66  1  0  0  0  0
 34 35  1  0  0  0  0
 34 67  1  0  0  0  0
 35 36  1  0  0  0  0
 36 37  1  0  0  0  0
 37 38  1  0  0  0  0
 37 68  1  0  0  0  0
 37 69  1  0  0  0  0
 38 39  1  0  0  0  0
 38 70  1  0  0  0  0
 38 71  1  0  0  0  0
 39 40  1  0  0  0  0
 39 72  1  0  0  0  0
 39 73  1  0  0  0  0
 40 41  1  0  0  0  0
 40 46  1  0  0  0  0
 41 42  1  0  0  0  0
 41 74  1  0  0  0  0
 41 75  1  0  0  0  0
 42 43  1  0  0  0  0
 42 76  1  0  0  0  0
 42 77  1  0  0  0  0
 43 44  1  0  0  0  0
 43 45  1  0  0  0  0
 44 78  1  0  0  0  0
 44 79  1  0  0  0  0
 44 80  1  0  0  0  0
 45 46  1  0  0  0  0
 45 81  1  0  0  0  0
 45 82  1  0  0  0  0
 46 83  1  0  0  0  0
 46 84  1  0  0  0  0
M  END
$$$$
