CHEMBL272425
 OpenBabel04072215363D

 45 48  0  0  0  0  0  0  0  0999 V2000
    1.2761   -0.0144   -1.3135 N   0  0  0  0  0  0  0  0  0  0  0  0
    2.6173   -0.0472   -1.1599 C   0  0  0  0  0  0  0  0  0  0  0  0
    3.3222    0.9894   -1.5936 N   0  0  0  0  0  0  0  0  0  0  0  0
    4.9031    0.7628   -1.2343 S   0  0  0  0  0  0  0  0  0  0  0  0
    4.7128   -0.7713   -0.4895 C   0  0  0  0  0  0  0  0  0  0  0  0
    5.7241   -1.5528    0.0932 C   0  0  0  0  0  0  0  0  0  0  0  0
    5.3794   -2.7801    0.6349 C   0  0  0  0  0  0  0  0  0  0  0  0
    4.0662   -3.2213    0.5646 C   0  0  0  0  0  0  0  0  0  0  0  0
    3.0217   -2.4555   -0.0242 C   0  0  0  0  0  0  0  0  0  0  0  0
    1.6566   -3.0415   -0.0876 C   0  0  0  0  0  0  0  0  0  0  0  0
    1.1516   -3.8167    0.9755 C   0  0  0  0  0  0  0  0  0  0  0  0
   -0.1075   -4.4243    0.9211 C   0  0  0  0  0  0  0  0  0  0  0  0
   -0.9326   -4.2389   -0.1825 C   0  0  0  0  0  0  0  0  0  0  0  0
   -2.2093   -4.8265   -0.2914 N   0  0  0  0  0  0  0  0  0  0  0  0
   -2.9289   -5.3673    0.7563 C   0  0  0  0  0  0  0  0  0  0  0  0
   -2.6807   -5.2070    1.9476 O   0  0  0  0  0  0  0  0  0  0  0  0
   -3.9660   -6.1581    0.2816 N   0  0  0  0  0  0  0  0  0  0  0  0
   -4.8596   -6.8022    1.1636 C   0  0  0  0  0  0  0  0  0  0  0  0
   -5.1627   -8.1469    0.9511 C   0  0  0  0  0  0  0  0  0  0  0  0
   -6.0038   -8.8207    1.8368 C   0  0  0  0  0  0  0  0  0  0  0  0
   -6.5968   -8.1361    2.8990 C   0  0  0  0  0  0  0  0  0  0  0  0
   -6.3438   -6.7704    3.0940 C   0  0  0  0  0  0  0  0  0  0  0  0
   -7.0265   -5.9956    4.1922 C   0  0  0  0  0  0  0  0  0  0  0  0
   -7.9529   -6.7273    4.8744 F   0  0  0  0  0  0  0  0  0  0  0  0
   -6.1620   -5.5223    5.1299 F   0  0  0  0  0  0  0  0  0  0  0  0
   -7.6979   -4.9087    3.7163 F   0  0  0  0  0  0  0  0  0  0  0  0
   -5.4493   -6.1170    2.2309 C   0  0  0  0  0  0  0  0  0  0  0  0
   -0.4545   -3.4841   -1.2548 C   0  0  0  0  0  0  0  0  0  0  0  0
    0.8366   -2.9340   -1.2194 C   0  0  0  0  0  0  0  0  0  0  0  0
    3.3607   -1.1539   -0.5494 C   0  0  0  0  0  0  0  0  0  0  0  0
    0.8950    0.8660   -1.6447 H   0  0  0  0  0  0  0  0  0  0  0  0
    0.6829   -0.4719   -0.6325 H   0  0  0  0  0  0  0  0  0  0  0  0
    6.7523   -1.2065    0.1189 H   0  0  0  0  0  0  0  0  0  0  0  0
    6.1402   -3.4046    1.0973 H   0  0  0  0  0  0  0  0  0  0  0  0
    3.8520   -4.2108    0.9680 H   0  0  0  0  0  0  0  0  0  0  0  0
    1.7433   -3.9760    1.8745 H   0  0  0  0  0  0  0  0  0  0  0  0
   -0.4016   -5.0651    1.7542 H   0  0  0  0  0  0  0  0  0  0  0  0
   -2.7298   -4.6547   -1.1409 H   0  0  0  0  0  0  0  0  0  0  0  0
   -3.7289   -6.6610   -0.5626 H   0  0  0  0  0  0  0  0  0  0  0  0
   -4.7042   -8.7006    0.1359 H   0  0  0  0  0  0  0  0  0  0  0  0
   -6.1941   -9.8829    1.7034 H   0  0  0  0  0  0  0  0  0  0  0  0
   -7.2630   -8.6731    3.5730 H   0  0  0  0  0  0  0  0  0  0  0  0
   -5.2324   -5.0606    2.3884 H   0  0  0  0  0  0  0  0  0  0  0  0
   -1.0657   -3.3049   -2.1370 H   0  0  0  0  0  0  0  0  0  0  0  0
    1.1896   -2.4008   -2.1024 H   0  0  0  0  0  0  0  0  0  0  0  0
  1  2  1  0  0  0  0
  1 31  1  0  0  0  0
  1 32  1  0  0  0  0
  2  3  2  0  0  0  0
  2 30  1  0  0  0  0
  3  4  1  0  0  0  0
  4  5  1  0  0  0  0
  5  6  1  0  0  0  0
  5 30  2  0  0  0  0
  6  7  2  0  0  0  0
  6 33  1  0  0  0  0
  7  8  1  0  0  0  0
  7 34  1  0  0  0  0
  8  9  2  0  0  0  0
  8 35  1  0  0  0  0
  9 10  1  0  0  0  0
  9 30  1  0  0  0  0
 10 11  1  0  0  0  0
 10 29  2  0  0  0  0
 11 12  2  0  0  0  0
 11 36  1  0  0  0  0
 12 13  1  0  0  0  0
 12 37  1  0  0  0  0
 13 14  1  0  0  0  0
 13 28  2  0  0  0  0
 14 15  1  0  0  0  0
 14 38  1  0  0  0  0
 15 16  2  0  0  0  0
 15 17  1  0  0  0  0
 17 18  1  0  0  0  0
 17 39  1  0  0  0  0
 18 19  1  0  0  0  0
 18 27  2  0  0  0  0
 19 20  2  0  0  0  0
 19 40  1  0  0  0  0
 20 21  1  0  0  0  0
 20 41  1  0  0  0  0
 21 22  2  0  0  0  0
 21 42  1  0  0  0  0
 22 23  1  0  0  0  0
 22 27  1  0  0  0  0
 23 24  1  0  0  0  0
 23 25  1  0  0  0  0
 23 26  1  0  0  0  0
 27 43  1  0  0  0  0
 28 29  1  0  0  0  0
 28 44  1  0  0  0  0
 29 45  1  0  0  0  0
M  END
$$$$
