CHEMBL2349007
 OpenBabel04072215363D

 56 60  0  0  0  0  0  0  0  0999 V2000
    5.4587    6.5371   -1.2252 O   0  0  0  0  0  0  0  0  0  0  0  0
    4.4952    5.7842   -1.3245 C   0  0  0  0  0  0  0  0  0  0  0  0
    3.7348    5.2741   -0.2793 N   0  0  0  0  0  0  0  0  0  0  0  0
    3.9036    5.6125    1.0896 C   0  0  0  0  0  0  0  0  0  0  0  0
    4.6367    6.7320    1.4941 C   0  0  0  0  0  0  0  0  0  0  0  0
    4.8533    7.0070    2.8457 C   0  0  0  0  0  0  0  0  0  0  0  0
    4.3268    6.1677    3.8149 C   0  0  0  0  0  0  0  0  0  0  0  0
    3.5368    5.0857    3.4282 C   0  0  0  0  0  0  0  0  0  0  0  0
    3.0364    4.1816    4.3924 O   0  0  0  0  0  0  0  0  0  0  0  0
    2.5487    4.6701    5.6006 C   0  0  0  0  0  0  0  0  0  0  0  0
    2.5911    3.5743    6.5972 C   0  0  0  0  0  0  0  0  0  0  0  0
    2.1669    3.8756    7.8318 C   0  0  0  0  0  0  0  0  0  0  0  0
    1.7004    5.1815    8.1010 C   0  0  0  0  0  0  0  0  0  0  0  0
    1.2141    5.7173    9.1950 N   0  0  0  0  0  0  0  0  0  0  0  0
    0.9393    7.0190    8.8852 C   0  0  0  0  0  0  0  0  0  0  0  0
    0.3941    7.9189    9.7796 N   0  0  0  0  0  0  0  0  0  0  0  0
    0.0573    7.5696   11.0751 C   0  0  0  0  0  0  0  0  0  0  0  0
    0.2204    6.4690   11.5955 O   0  0  0  0  0  0  0  0  0  0  0  0
   -0.5506    8.6261   11.9355 C   0  0  0  0  0  0  0  0  0  0  0  0
   -1.2891    9.7072   11.4411 C   0  0  0  0  0  0  0  0  0  0  0  0
   -1.9063   10.5995   12.3325 C   0  0  0  0  0  0  0  0  0  0  0  0
   -1.8001   10.4218   13.7228 C   0  0  0  0  0  0  0  0  0  0  0  0
   -2.4989   11.3381   14.6997 C   0  0  0  0  0  0  0  0  0  0  0  0
   -3.2044   12.3368   14.1004 F   0  0  0  0  0  0  0  0  0  0  0  0
   -3.3890   10.6739   15.4882 F   0  0  0  0  0  0  0  0  0  0  0  0
   -1.6309   11.9515   15.5508 F   0  0  0  0  0  0  0  0  0  0  0  0
   -1.0466    9.3462   14.2094 C   0  0  0  0  0  0  0  0  0  0  0  0
   -0.4319    8.4603   13.3250 C   0  0  0  0  0  0  0  0  0  0  0  0
    1.2755    7.2894    7.5786 C   0  0  0  0  0  0  0  0  0  0  0  0
    1.7350    6.1010    7.0691 N   0  0  0  0  0  0  0  0  0  0  0  0
    2.1467    5.8880    5.7881 N   0  0  0  0  0  0  0  0  0  0  0  0
    3.3266    4.7928    2.0732 C   0  0  0  0  0  0  0  0  0  0  0  0
    4.1460    5.3228   -2.6931 C   0  0  0  0  0  0  0  0  0  0  0  0
    5.1888    5.1785   -3.6249 C   0  0  0  0  0  0  0  0  0  0  0  0
    4.9176    4.8080   -4.9428 C   0  0  0  0  0  0  0  0  0  0  0  0
    3.6000    4.5916   -5.3369 C   0  0  0  0  0  0  0  0  0  0  0  0
    2.5706    4.7498   -4.4120 C   0  0  0  0  0  0  0  0  0  0  0  0
    1.3044    4.5623   -4.8060 F   0  0  0  0  0  0  0  0  0  0  0  0
    2.8251    5.1137   -3.0921 C   0  0  0  0  0  0  0  0  0  0  0  0
    3.1136    4.5014   -0.4816 H   0  0  0  0  0  0  0  0  0  0  0  0
    5.0577    7.4287    0.7753 H   0  0  0  0  0  0  0  0  0  0  0  0
    5.4442    7.8729    3.1323 H   0  0  0  0  0  0  0  0  0  0  0  0
    4.5389    6.3712    4.8602 H   0  0  0  0  0  0  0  0  0  0  0  0
    2.9781    2.6030    6.3236 H   0  0  0  0  0  0  0  0  0  0  0  0
    2.1749    3.1521    8.6394 H   0  0  0  0  0  0  0  0  0  0  0  0
    0.2771    8.8649    9.4542 H   0  0  0  0  0  0  0  0  0  0  0  0
   -1.4426    9.8512   10.3758 H   0  0  0  0  0  0  0  0  0  0  0  0
   -2.4972   11.4249   11.9350 H   0  0  0  0  0  0  0  0  0  0  0  0
   -0.9528    9.1773   15.2816 H   0  0  0  0  0  0  0  0  0  0  0  0
    0.1272    7.6144   13.7253 H   0  0  0  0  0  0  0  0  0  0  0  0
    1.2232    8.1742    6.9644 H   0  0  0  0  0  0  0  0  0  0  0  0
    2.7469    3.9153    1.8041 H   0  0  0  0  0  0  0  0  0  0  0  0
    6.2184    5.3694   -3.3234 H   0  0  0  0  0  0  0  0  0  0  0  0
    5.7305    4.7043   -5.6578 H   0  0  0  0  0  0  0  0  0  0  0  0
    3.3676    4.3156   -6.3611 H   0  0  0  0  0  0  0  0  0  0  0  0
    1.9894    5.2699   -2.4196 H   0  0  0  0  0  0  0  0  0  0  0  0
  1  2  2  0  0  0  0
  2  3  1  0  0  0  0
  2 33  1  0  0  0  0
  3  4  1  0  0  0  0
  3 40  1  0  0  0  0
  4  5  1  0  0  0  0
  4 32  2  0  0  0  0
  5  6  2  0  0  0  0
  5 41  1  0  0  0  0
  6  7  1  0  0  0  0
  6 42  1  0  0  0  0
  7  8  2  0  0  0  0
  7 43  1  0  0  0  0
  8  9  1  0  0  0  0
  8 32  1  0  0  0  0
  9 10  1  0  0  0  0
 10 11  1  0  0  0  0
 10 31  2  0  0  0  0
 11 12  2  0  0  0  0
 11 44  1  0  0  0  0
 12 13  1  0  0  0  0
 12 45  1  0  0  0  0
 13 14  2  0  0  0  0
 13 30  1  0  0  0  0
 14 15  1  0  0  0  0
 15 16  1  0  0  0  0
 15 29  2  0  0  0  0
 16 17  1  0  0  0  0
 16 46  1  0  0  0  0
 17 18  2  0  0  0  0
 17 19  1  0  0  0  0
 19 20  1  0  0  0  0
 19 28  2  0  0  0  0
 20 21  2  0  0  0  0
 20 47  1  0  0  0  0
 21 22  1  0  0  0  0
 21 48  1  0  0  0  0
 22 23  1  0  0  0  0
 22 27  2  0  0  0  0
 23 24  1  0  0  0  0
 23 25  1  0  0  0  0
 23 26  1  0  0  0  0
 27 28  1  0  0  0  0
 27 49  1  0  0  0  0
 28 50  1  0  0  0  0
 29 30  1  0  0  0  0
 29 51  1  0  0  0  0
 30 31  1  0  0  0  0
 32 52  1  0  0  0  0
 33 34  1  0  0  0  0
 33 39  2  0  0  0  0
 34 35  2  0  0  0  0
 34 53  1  0  0  0  0
 35 36  1  0  0  0  0
 35 54  1  0  0  0  0
 36 37  2  0  0  0  0
 36 55  1  0  0  0  0
 37 38  1  0  0  0  0
 37 39  1  0  0  0  0
 39 56  1  0  0  0  0
M  END
$$$$
