CHEMBL424672
 OpenBabel04072215383D

 38 40  0  0  0  0  0  0  0  0999 V2000
    0.9325    0.1826    0.0329 O   0  0  0  0  0  0  0  0  0  0  0  0
    2.1491    0.0130    0.0556 C   0  0  0  0  0  0  0  0  0  0  0  0
    2.7782   -0.9820   -0.6898 N   0  0  0  0  0  0  0  0  0  0  0  0
    2.1040   -1.8410   -1.5901 C   0  0  0  0  0  0  0  0  0  0  0  0
    0.8454   -1.5302   -2.1222 C   0  0  0  0  0  0  0  0  0  0  0  0
    0.1476   -2.4355   -2.9204 C   0  0  0  0  0  0  0  0  0  0  0  0
    0.7038   -3.6711   -3.2218 C   0  0  0  0  0  0  0  0  0  0  0  0
    0.0880   -4.6676   -3.9215 O   0  0  0  0  0  0  0  0  0  0  0  0
   -0.9337   -4.2869   -4.8403 C   0  0  0  0  0  0  0  0  0  0  0  0
   -1.9766   -3.7163   -4.1885 F   0  0  0  0  0  0  0  0  0  0  0  0
   -0.4374   -3.3826   -5.7207 F   0  0  0  0  0  0  0  0  0  0  0  0
   -1.5086   -5.7146   -5.7079 Cl  0  0  0  0  0  0  0  0  0  0  0  0
    1.9824   -3.9693   -2.7389 C   0  0  0  0  0  0  0  0  0  0  0  0
    2.6910   -3.0529   -1.9442 C   0  0  0  0  0  0  0  0  0  0  0  0
    2.9802    0.8378    0.9122 C   0  0  0  0  0  0  0  0  0  0  0  0
    4.6801    0.7030    1.0277 S   0  0  0  0  0  0  0  0  0  0  0  0
    4.6912    1.9953    2.1551 C   0  0  0  0  0  0  0  0  0  0  0  0
    3.5221    2.5140    2.4569 N   0  0  0  0  0  0  0  0  0  0  0  0
    2.5283    1.8585    1.7464 C   0  0  0  0  0  0  0  0  0  0  0  0
    1.0886    2.2666    1.9057 C   0  0  0  0  0  0  0  0  0  0  0  0
    0.8272    3.4310    2.8553 C   0  0  0  0  0  0  0  0  0  0  0  0
   -0.6276    3.7517    2.9267 C   0  0  0  0  0  0  0  0  0  0  0  0
   -1.6055    3.2063    3.7891 C   0  0  0  0  0  0  0  0  0  0  0  0
   -2.8208    3.7094    3.5618 N   0  0  0  0  0  0  0  0  0  0  0  0
   -2.6549    4.6051    2.5184 O   0  0  0  0  0  0  0  0  0  0  0  0
   -1.3514    4.6221    2.1454 C   0  0  0  0  0  0  0  0  0  0  0  0
    3.7395   -1.1984   -0.4528 H   0  0  0  0  0  0  0  0  0  0  0  0
    0.3644   -0.5738   -1.9372 H   0  0  0  0  0  0  0  0  0  0  0  0
   -0.8426   -2.1350   -3.2465 H   0  0  0  0  0  0  0  0  0  0  0  0
    2.4330   -4.9325   -2.9698 H   0  0  0  0  0  0  0  0  0  0  0  0
    3.6752   -3.3280   -1.5786 H   0  0  0  0  0  0  0  0  0  0  0  0
    5.6120    2.3613    2.5913 H   0  0  0  0  0  0  0  0  0  0  0  0
    0.5223    1.3920    2.2549 H   0  0  0  0  0  0  0  0  0  0  0  0
    0.6948    2.5295    0.9140 H   0  0  0  0  0  0  0  0  0  0  0  0
    1.3805    4.3179    2.5229 H   0  0  0  0  0  0  0  0  0  0  0  0
    1.1961    3.1874    3.8593 H   0  0  0  0  0  0  0  0  0  0  0  0
   -1.4885    2.4630    4.5654 H   0  0  0  0  0  0  0  0  0  0  0  0
   -1.1120    5.2828    1.3254 H   0  0  0  0  0  0  0  0  0  0  0  0
  1  2  2  0  0  0  0
  2  3  1  0  0  0  0
  2 15  1  0  0  0  0
  3  4  1  0  0  0  0
  3 27  1  0  0  0  0
  4  5  1  0  0  0  0
  4 14  2  0  0  0  0
  5  6  2  0  0  0  0
  5 28  1  0  0  0  0
  6  7  1  0  0  0  0
  6 29  1  0  0  0  0
  7  8  1  0  0  0  0
  7 13  2  0  0  0  0
  8  9  1  0  0  0  0
  9 10  1  0  0  0  0
  9 11  1  0  0  0  0
  9 12  1  0  0  0  0
 13 14  1  0  0  0  0
 13 30  1  0  0  0  0
 14 31  1  0  0  0  0
 15 16  1  0  0  0  0
 15 19  2  0  0  0  0
 16 17  1  0  0  0  0
 17 18  2  0  0  0  0
 17 32  1  0  0  0  0
 18 19  1  0  0  0  0
 19 20  1  0  0  0  0
 20 21  1  0  0  0  0
 20 33  1  0  0  0  0
 20 34  1  0  0  0  0
 21 22  1  0  0  0  0
 21 35  1  0  0  0  0
 21 36  1  0  0  0  0
 22 23  1  0  0  0  0
 22 26  2  0  0  0  0
 23 24  2  0  0  0  0
 23 37  1  0  0  0  0
 24 25  1  0  0  0  0
 25 26  1  0  0  0  0
 26 38  1  0  0  0  0
M  END
$$$$
