CHEMBL1172422
 OpenBabel04072215363D

 54 57  0  0  0  0  0  0  0  0999 V2000
    2.3866    0.3145   -1.0815 C   0  0  0  0  0  0  0  0  0  0  0  0
    1.0115    0.0881   -0.5611 C   0  0  0  0  0  0  0  0  0  0  0  0
    0.4649   -1.1738   -0.5846 N   0  0  0  0  0  0  0  0  0  0  0  0
   -0.7628   -1.1781    0.0220 C   0  0  0  0  0  0  0  0  0  0  0  0
   -1.4387   -2.4235    0.1372 C   0  0  0  0  0  0  0  0  0  0  0  0
   -1.2676   -3.2635    1.1732 C   0  0  0  0  0  0  0  0  0  0  0  0
   -0.3734   -3.0464    2.3751 C   0  0  0  0  0  0  0  0  0  0  0  0
    0.4179   -2.1449    2.5943 O   0  0  0  0  0  0  0  0  0  0  0  0
   -0.6124   -4.1307    3.1993 N   0  0  0  0  0  0  0  0  0  0  0  0
   -1.5168   -5.0170    2.6277 C   0  0  0  0  0  0  0  0  0  0  0  0
   -1.9380   -6.2069    3.1883 C   0  0  0  0  0  0  0  0  0  0  0  0
   -2.8433   -7.0044    2.4786 C   0  0  0  0  0  0  0  0  0  0  0  0
   -3.3512   -8.2214    3.0197 N   0  0  0  0  0  0  0  0  0  0  0  0
   -3.3925   -8.4991    4.3807 C   0  0  0  0  0  0  0  0  0  0  0  0
   -3.0649   -7.7003    5.2563 O   0  0  0  0  0  0  0  0  0  0  0  0
   -3.8343   -9.7877    4.6646 N   0  0  0  0  0  0  0  0  0  0  0  0
   -3.9085  -10.1962    6.0257 C   0  0  0  0  0  0  0  0  0  0  0  0
   -4.5946   -9.4229    6.9714 C   0  0  0  0  0  0  0  0  0  0  0  0
   -4.5683   -9.7666    8.3249 C   0  0  0  0  0  0  0  0  0  0  0  0
   -3.8474  -10.8817    8.7432 C   0  0  0  0  0  0  0  0  0  0  0  0
   -3.1835  -11.6709    7.8030 C   0  0  0  0  0  0  0  0  0  0  0  0
   -3.2340  -11.3460    6.4417 C   0  0  0  0  0  0  0  0  0  0  0  0
   -3.2484   -6.5835    1.1923 C   0  0  0  0  0  0  0  0  0  0  0  0
   -2.8094   -5.3533    0.6424 C   0  0  0  0  0  0  0  0  0  0  0  0
   -1.9436   -4.5633    1.3810 C   0  0  0  0  0  0  0  0  0  0  0  0
   -1.0413    0.1227    0.4108 C   0  0  0  0  0  0  0  0  0  0  0  0
   -2.2613    0.5858    1.1313 C   0  0  0  0  0  0  0  0  0  0  0  0
    0.1034    0.9335    0.0663 C   0  0  0  0  0  0  0  0  0  0  0  0
    0.3071    2.3893    0.4176 C   0  0  0  0  0  0  0  0  0  0  0  0
   -0.1965    3.4273   -0.5686 C   0  0  0  0  0  0  0  0  0  0  0  0
   -0.1094    4.6273   -0.3564 O   0  0  0  0  0  0  0  0  0  0  0  0
   -0.7498    2.9590   -1.7119 O   0  0  0  0  0  0  0  0  0  0  0  0
    2.8143   -0.6137   -1.4860 H   0  0  0  0  0  0  0  0  0  0  0  0
    3.0512    0.6594   -0.2840 H   0  0  0  0  0  0  0  0  0  0  0  0
    2.3839    1.0548   -1.8854 H   0  0  0  0  0  0  0  0  0  0  0  0
    0.9383   -1.9963   -0.9343 H   0  0  0  0  0  0  0  0  0  0  0  0
   -2.1360   -2.6736   -0.6564 H   0  0  0  0  0  0  0  0  0  0  0  0
   -0.1575   -4.2532    4.0905 H   0  0  0  0  0  0  0  0  0  0  0  0
   -1.5482   -6.4957    4.1570 H   0  0  0  0  0  0  0  0  0  0  0  0
   -3.9436   -8.7877    2.4279 H   0  0  0  0  0  0  0  0  0  0  0  0
   -3.5181  -10.4880    4.0095 H   0  0  0  0  0  0  0  0  0  0  0  0
   -5.1382   -8.5326    6.6648 H   0  0  0  0  0  0  0  0  0  0  0  0
   -5.0877   -9.1467    9.0515 H   0  0  0  0  0  0  0  0  0  0  0  0
   -3.7931  -11.1266    9.8013 H   0  0  0  0  0  0  0  0  0  0  0  0
   -2.6006  -12.5257    8.1380 H   0  0  0  0  0  0  0  0  0  0  0  0
   -2.6740  -11.9530    5.7375 H   0  0  0  0  0  0  0  0  0  0  0  0
   -3.9368   -7.1912    0.6076 H   0  0  0  0  0  0  0  0  0  0  0  0
   -3.1519   -5.0430   -0.3399 H   0  0  0  0  0  0  0  0  0  0  0  0
   -2.9767   -0.2292    1.2779 H   0  0  0  0  0  0  0  0  0  0  0  0
   -2.7617    1.3758    0.5624 H   0  0  0  0  0  0  0  0  0  0  0  0
   -1.9953    0.9801    2.1171 H   0  0  0  0  0  0  0  0  0  0  0  0
    1.3770    2.5817    0.5616 H   0  0  0  0  0  0  0  0  0  0  0  0
   -0.1969    2.5962    1.3700 H   0  0  0  0  0  0  0  0  0  0  0  0
   -0.7565    1.9817   -1.7632 H   0  0  0  0  0  0  0  0  0  0  0  0
  1  2  1  0  0  0  0
  1 33  1  0  0  0  0
  1 34  1  0  0  0  0
  1 35  1  0  0  0  0
  2  3  1  0  0  0  0
  2 28  2  0  0  0  0
  3  4  1  0  0  0  0
  3 36  1  0  0  0  0
  4  5  1  0  0  0  0
  4 26  2  0  0  0  0
  5  6  2  0  0  0  0
  5 37  1  0  0  0  0
  6  7  1  0  0  0  0
  6 25  1  0  0  0  0
  7  8  2  0  0  0  0
  7  9  1  0  0  0  0
  9 10  1  0  0  0  0
  9 38  1  0  0  0  0
 10 11  1  0  0  0  0
 10 25  2  0  0  0  0
 11 12  2  0  0  0  0
 11 39  1  0  0  0  0
 12 13  1  0  0  0  0
 12 23  1  0  0  0  0
 13 14  1  0  0  0  0
 13 40  1  0  0  0  0
 14 15  2  0  0  0  0
 14 16  1  0  0  0  0
 16 17  1  0  0  0  0
 16 41  1  0  0  0  0
 17 18  1  0  0  0  0
 17 22  2  0  0  0  0
 18 19  2  0  0  0  0
 18 42  1  0  0  0  0
 19 20  1  0  0  0  0
 19 43  1  0  0  0  0
 20 21  2  0  0  0  0
 20 44  1  0  0  0  0
 21 22  1  0  0  0  0
 21 45  1  0  0  0  0
 22 46  1  0  0  0  0
 23 24  2  0  0  0  0
 23 47  1  0  0  0  0
 24 25  1  0  0  0  0
 24 48  1  0  0  0  0
 26 27  1  0  0  0  0
 26 28  1  0  0  0  0
 27 49  1  0  0  0  0
 27 50  1  0  0  0  0
 27 51  1  0  0  0  0
 28 29  1  0  0  0  0
 29 30  1  0  0  0  0
 29 52  1  0  0  0  0
 29 53  1  0  0  0  0
 30 31  2  0  0  0  0
 30 32  1  0  0  0  0
 32 54  1  0  0  0  0
M  END
$$$$
