CHEMBL240431
 OpenBabel04072215363D

 75 80  0  0  0  0  0  0  0  0999 V2000
    1.4988   -0.2418    0.1061 C   0  0  0  0  0  0  0  0  0  0  0  0
    1.0420    0.9803   -0.3774 C   0  0  0  0  0  0  0  0  0  0  0  0
   -0.3267    1.2643   -0.3831 C   0  0  0  0  0  0  0  0  0  0  0  0
   -1.2667    0.2976    0.0067 C   0  0  0  0  0  0  0  0  0  0  0  0
   -2.7129    0.5360   -0.1040 C   0  0  0  0  0  0  0  0  0  0  0  0
   -3.3143    1.1479   -1.2026 C   0  0  0  0  0  0  0  0  0  0  0  0
   -2.8201    1.7253   -2.4496 C   0  0  0  0  0  0  0  0  0  0  0  0
   -1.7896    1.0741   -3.1393 C   0  0  0  0  0  0  0  0  0  0  0  0
   -1.1177    1.7043   -4.1827 C   0  0  0  0  0  0  0  0  0  0  0  0
   -1.5086    2.9700   -4.6194 C   0  0  0  0  0  0  0  0  0  0  0  0
   -0.8815    3.6781   -5.6181 O   0  0  0  0  0  0  0  0  0  0  0  0
   -0.0481    2.8749   -6.4656 C   0  0  0  0  0  0  0  0  0  0  0  0
    0.6617    3.7202   -7.5308 C   0  0  0  0  0  0  0  0  0  0  0  0
    1.3558    2.8870   -8.5355 N   0  0  0  0  0  0  0  0  0  0  0  0
    2.4547    2.0698   -7.9996 C   0  0  0  0  0  0  0  0  0  0  0  0
    3.6809    2.9549   -8.0633 C   0  0  0  0  0  0  0  0  0  0  0  0
    3.4668    3.7593   -9.3300 C   0  0  0  0  0  0  0  0  0  0  0  0
    1.9634    3.7149   -9.5889 C   0  0  0  0  0  0  0  0  0  0  0  0
   -2.5929    3.5929   -3.9964 C   0  0  0  0  0  0  0  0  0  0  0  0
   -3.2485    2.9735   -2.9202 C   0  0  0  0  0  0  0  0  0  0  0  0
   -4.6695    1.1465   -1.0649 O   0  0  0  0  0  0  0  0  0  0  0  0
   -4.9628    0.5104    0.1007 C   0  0  0  0  0  0  0  0  0  0  0  0
   -6.2287    0.2995    0.4867 N   0  0  0  0  0  0  0  0  0  0  0  0
   -6.3218   -0.3472    1.6664 C   0  0  0  0  0  0  0  0  0  0  0  0
   -5.2482   -0.7464    2.4488 C   0  0  0  0  0  0  0  0  0  0  0  0
   -3.9350   -0.4789    2.0379 C   0  0  0  0  0  0  0  0  0  0  0  0
   -2.8583   -0.7340    2.8963 N   0  0  0  0  0  0  0  0  0  0  0  0
   -2.7383   -2.0529    3.5304 C   0  0  0  0  0  0  0  0  0  0  0  0
   -1.6375   -1.9774    4.6138 C   0  0  0  0  0  0  0  0  0  0  0  0
   -1.4972   -3.1685    5.4759 N   0  0  0  0  0  0  0  0  0  0  0  0
   -0.4723   -2.9185    6.5185 C   0  0  0  0  0  0  0  0  0  0  0  0
    0.9888   -2.9352    6.0044 C   0  0  0  0  0  0  0  0  0  0  0  0
    1.3315   -4.1423    5.2301 N   0  0  0  0  0  0  0  0  0  0  0  0
    0.3223   -4.3734    4.1837 C   0  0  0  0  0  0  0  0  0  0  0  0
   -1.1199   -4.3887    4.7359 C   0  0  0  0  0  0  0  0  0  0  0  0
   -3.7912    0.1480    0.7706 C   0  0  0  0  0  0  0  0  0  0  0  0
   -0.7868   -0.9442    0.4492 C   0  0  0  0  0  0  0  0  0  0  0  0
    0.5850   -1.1967    0.5416 C   0  0  0  0  0  0  0  0  0  0  0  0
    2.5650   -0.4520    0.1360 H   0  0  0  0  0  0  0  0  0  0  0  0
    1.7476    1.7153   -0.7570 H   0  0  0  0  0  0  0  0  0  0  0  0
   -0.6462    2.2386   -0.7470 H   0  0  0  0  0  0  0  0  0  0  0  0
   -1.4469    0.0939   -2.8217 H   0  0  0  0  0  0  0  0  0  0  0  0
   -0.2678    1.1753   -4.5970 H   0  0  0  0  0  0  0  0  0  0  0  0
   -0.6724    2.1167   -6.9554 H   0  0  0  0  0  0  0  0  0  0  0  0
    0.7267    2.4001   -5.8593 H   0  0  0  0  0  0  0  0  0  0  0  0
    1.3441    4.4288   -7.0445 H   0  0  0  0  0  0  0  0  0  0  0  0
   -0.1013    4.3289   -8.0334 H   0  0  0  0  0  0  0  0  0  0  0  0
    2.5904    1.2025   -8.6580 H   0  0  0  0  0  0  0  0  0  0  0  0
    2.2938    1.6659   -6.9968 H   0  0  0  0  0  0  0  0  0  0  0  0
    4.6091    2.3762   -8.0942 H   0  0  0  0  0  0  0  0  0  0  0  0
    3.7237    3.6207   -7.1936 H   0  0  0  0  0  0  0  0  0  0  0  0
    4.0051    3.2977  -10.1659 H   0  0  0  0  0  0  0  0  0  0  0  0
    3.8363    4.7829   -9.2136 H   0  0  0  0  0  0  0  0  0  0  0  0
    1.7759    3.2380  -10.5587 H   0  0  0  0  0  0  0  0  0  0  0  0
    1.5384    4.7229   -9.6495 H   0  0  0  0  0  0  0  0  0  0  0  0
   -2.9208    4.5727   -4.3341 H   0  0  0  0  0  0  0  0  0  0  0  0
   -4.0716    3.4899   -2.4276 H   0  0  0  0  0  0  0  0  0  0  0  0
   -7.3383   -0.5322    2.0039 H   0  0  0  0  0  0  0  0  0  0  0  0
   -5.4512   -1.2151    3.4058 H   0  0  0  0  0  0  0  0  0  0  0  0
   -1.9765   -0.4019    2.5141 H   0  0  0  0  0  0  0  0  0  0  0  0
   -2.4728   -2.7929    2.7677 H   0  0  0  0  0  0  0  0  0  0  0  0
   -3.6763   -2.3685    3.9988 H   0  0  0  0  0  0  0  0  0  0  0  0
   -1.8879   -1.1242    5.2596 H   0  0  0  0  0  0  0  0  0  0  0  0
   -0.6903   -1.7165    4.1261 H   0  0  0  0  0  0  0  0  0  0  0  0
   -0.5807   -3.6928    7.2897 H   0  0  0  0  0  0  0  0  0  0  0  0
   -0.6721   -1.9680    7.0293 H   0  0  0  0  0  0  0  0  0  0  0  0
    1.6684   -2.8694    6.8613 H   0  0  0  0  0  0  0  0  0  0  0  0
    1.1848   -2.0496    5.3892 H   0  0  0  0  0  0  0  0  0  0  0  0
    1.3025   -4.9369    5.8715 H   0  0  0  0  0  0  0  0  0  0  0  0
    0.5321   -5.3362    3.7043 H   0  0  0  0  0  0  0  0  0  0  0  0
    0.4244   -3.6116    3.4019 H   0  0  0  0  0  0  0  0  0  0  0  0
   -1.2185   -5.2407    5.4230 H   0  0  0  0  0  0  0  0  0  0  0  0
   -1.8306   -4.5956    3.9289 H   0  0  0  0  0  0  0  0  0  0  0  0
   -1.4782   -1.7377    0.7222 H   0  0  0  0  0  0  0  0  0  0  0  0
    0.9394   -2.1470    0.9330 H   0  0  0  0  0  0  0  0  0  0  0  0
  1  2  1  0  0  0  0
  1 38  2  0  0  0  0
  1 39  1  0  0  0  0
  2  3  2  0  0  0  0
  2 40  1  0  0  0  0
  3  4  1  0  0  0  0
  3 41  1  0  0  0  0
  4  5  1  0  0  0  0
  4 37  2  0  0  0  0
  5  6  2  0  0  0  0
  5 36  1  0  0  0  0
  6  7  1  0  0  0  0
  6 21  1  0  0  0  0
  7  8  1  0  0  0  0
  7 20  2  0  0  0  0
  8  9  2  0  0  0  0
  8 42  1  0  0  0  0
  9 10  1  0  0  0  0
  9 43  1  0  0  0  0
 10 11  1  0  0  0  0
 10 19  2  0  0  0  0
 11 12  1  0  0  0  0
 12 13  1  0  0  0  0
 12 44  1  0  0  0  0
 12 45  1  0  0  0  0
 13 14  1  0  0  0  0
 13 46  1  0  0  0  0
 13 47  1  0  0  0  0
 14 15  1  0  0  0  0
 14 18  1  0  0  0  0
 15 16  1  0  0  0  0
 15 48  1  0  0  0  0
 15 49  1  0  0  0  0
 16 17  1  0  0  0  0
 16 50  1  0  0  0  0
 16 51  1  0  0  0  0
 17 18  1  0  0  0  0
 17 52  1  0  0  0  0
 17 53  1  0  0  0  0
 18 54  1  0  0  0  0
 18 55  1  0  0  0  0
 19 20  1  0  0  0  0
 19 56  1  0  0  0  0
 20 57  1  0  0  0  0
 21 22  1  0  0  0  0
 22 23  1  0  0  0  0
 22 36  2  0  0  0  0
 23 24  2  0  0  0  0
 24 25  1  0  0  0  0
 24 58  1  0  0  0  0
 25 26  2  0  0  0  0
 25 59  1  0  0  0  0
 26 27  1  0  0  0  0
 26 36  1  0  0  0  0
 27 28  1  0  0  0  0
 27 60  1  0  0  0  0
 28 29  1  0  0  0  0
 28 61  1  0  0  0  0
 28 62  1  0  0  0  0
 29 30  1  0  0  0  0
 29 63  1  0  0  0  0
 29 64  1  0  0  0  0
 30 31  1  0  0  0  0
 30 35  1  0  0  0  0
 31 32  1  0  0  0  0
 31 65  1  0  0  0  0
 31 66  1  0  0  0  0
 32 33  1  0  0  0  0
 32 67  1  0  0  0  0
 32 68  1  0  0  0  0
 33 34  1  0  0  0  0
 33 69  1  0  0  0  0
 34 35  1  0  0  0  0
 34 70  1  0  0  0  0
 34 71  1  0  0  0  0
 35 72  1  0  0  0  0
 35 73  1  0  0  0  0
 37 38  1  0  0  0  0
 37 74  1  0  0  0  0
 38 75  1  0  0  0  0
M  END
$$$$
