CHEMBL3921457
 OpenBabel04072215373D

 62 66  0  0  0  0  0  0  0  0999 V2000
    2.1433    4.6874   -3.7569 C   0  0  0  0  0  0  0  0  0  0  0  0
    1.7983    3.9999   -2.5612 O   0  0  0  0  0  0  0  0  0  0  0  0
    2.7763    3.1930   -2.0390 C   0  0  0  0  0  0  0  0  0  0  0  0
    2.3307    2.3352   -1.0263 C   0  0  0  0  0  0  0  0  0  0  0  0
    3.2131    1.4430   -0.4376 C   0  0  0  0  0  0  0  0  0  0  0  0
    2.9142    0.5609    0.5673 O   0  0  0  0  0  0  0  0  0  0  0  0
    1.6210    0.6710    1.1570 C   0  0  0  0  0  0  0  0  0  0  0  0
    4.5356    1.4032   -0.9022 C   0  0  0  0  0  0  0  0  0  0  0  0
    5.0191    2.2625   -1.9298 C   0  0  0  0  0  0  0  0  0  0  0  0
    6.3498    2.1371   -2.4554 N   0  0  0  0  0  0  0  0  0  0  0  0
    6.6567    0.6197   -2.6091 C   0  0  0  0  0  0  0  0  0  0  0  0
    7.6944    0.1183   -1.6924 C   0  0  0  0  0  0  0  0  0  0  0  0
    8.5821    0.8858   -0.9701 C   0  0  0  0  0  0  0  0  0  0  0  0
    9.2753   -0.0084   -0.2374 N   0  0  0  0  0  0  0  0  0  0  0  0
   10.1725    0.3123    0.8289 C   0  0  0  0  0  0  0  0  0  0  0  0
    9.4423    0.2253    2.1551 C   0  0  0  0  0  0  0  0  0  0  0  0
   10.3177    0.5738    3.2189 O   0  0  0  0  0  0  0  0  0  0  0  0
    8.8736   -1.2686   -0.4857 N   0  0  0  0  0  0  0  0  0  0  0  0
    7.8886   -1.1995   -1.3733 N   0  0  0  0  0  0  0  0  0  0  0  0
    7.0939    2.9891   -3.3635 C   0  0  0  0  0  0  0  0  0  0  0  0
    7.3169    2.4611   -4.6051 C   0  0  0  0  0  0  0  0  0  0  0  0
    8.4753    2.7946   -5.2123 C   0  0  0  0  0  0  0  0  0  0  0  0
    9.3266    3.7651   -4.7958 C   0  0  0  0  0  0  0  0  0  0  0  0
   10.4480    3.4739   -5.3869 N   0  0  0  0  0  0  0  0  0  0  0  0
   11.2396    4.4671   -5.7088 C   0  0  0  0  0  0  0  0  0  0  0  0
   11.0289    5.7815   -5.4067 C   0  0  0  0  0  0  0  0  0  0  0  0
   11.9393    6.6230   -6.3273 C   0  0  0  0  0  0  0  0  0  0  0  0
   12.9000    7.6724   -6.1927 C   0  0  0  0  0  0  0  0  0  0  0  0
   13.7830    7.7682   -7.2160 N   0  0  0  0  0  0  0  0  0  0  0  0
   13.4561    6.7609   -8.0370 N   0  0  0  0  0  0  0  0  0  0  0  0
   14.2546    6.4163   -9.2052 C   0  0  0  0  0  0  0  0  0  0  0  0
   12.3354    6.1106   -7.5911 C   0  0  0  0  0  0  0  0  0  0  0  0
    9.9979    6.0235   -4.4545 N   0  0  0  0  0  0  0  0  0  0  0  0
    9.0116    4.8525   -4.0283 C   0  0  0  0  0  0  0  0  0  0  0  0
    7.8264    4.2643   -3.1199 C   0  0  0  0  0  0  0  0  0  0  0  0
    4.1175    3.1814   -2.4560 C   0  0  0  0  0  0  0  0  0  0  0  0
    1.2584    5.2266   -4.1033 H   0  0  0  0  0  0  0  0  0  0  0  0
    2.4393    3.9847   -4.5444 H   0  0  0  0  0  0  0  0  0  0  0  0
    2.9305    5.4235   -3.5662 H   0  0  0  0  0  0  0  0  0  0  0  0
    1.2873    2.3838   -0.7310 H   0  0  0  0  0  0  0  0  0  0  0  0
    1.5715   -0.0210    2.0046 H   0  0  0  0  0  0  0  0  0  0  0  0
    0.8427    0.3791    0.4444 H   0  0  0  0  0  0  0  0  0  0  0  0
    1.4425    1.6795    1.5457 H   0  0  0  0  0  0  0  0  0  0  0  0
    5.1827    0.6561   -0.4429 H   0  0  0  0  0  0  0  0  0  0  0  0
    7.0062    0.3270   -3.6059 H   0  0  0  0  0  0  0  0  0  0  0  0
    5.7511   -0.0081   -2.5223 H   0  0  0  0  0  0  0  0  0  0  0  0
    8.7084    1.9574   -0.9106 H   0  0  0  0  0  0  0  0  0  0  0  0
   10.5488    1.3300    0.6629 H   0  0  0  0  0  0  0  0  0  0  0  0
   11.0335   -0.3596    0.7750 H   0  0  0  0  0  0  0  0  0  0  0  0
    9.0475   -0.7820    2.3285 H   0  0  0  0  0  0  0  0  0  0  0  0
    8.5900    0.9159    2.1732 H   0  0  0  0  0  0  0  0  0  0  0  0
   10.9786   -0.1368    3.2940 H   0  0  0  0  0  0  0  0  0  0  0  0
    6.8045    1.6081   -5.0286 H   0  0  0  0  0  0  0  0  0  0  0  0
    8.8133    2.2071   -6.0763 H   0  0  0  0  0  0  0  0  0  0  0  0
   11.9764    4.1244   -6.4151 H   0  0  0  0  0  0  0  0  0  0  0  0
   13.0668    8.3485   -5.3670 H   0  0  0  0  0  0  0  0  0  0  0  0
   15.0856    7.1187   -9.3299 H   0  0  0  0  0  0  0  0  0  0  0  0
   13.6148    6.4463  -10.0938 H   0  0  0  0  0  0  0  0  0  0  0  0
   14.6606    5.4028   -9.0944 H   0  0  0  0  0  0  0  0  0  0  0  0
   12.0043    5.2500   -8.1582 H   0  0  0  0  0  0  0  0  0  0  0  0
    7.5529    4.8212   -2.2173 H   0  0  0  0  0  0  0  0  0  0  0  0
    4.4680    3.8500   -3.2306 H   0  0  0  0  0  0  0  0  0  0  0  0
  1  2  1  0  0  0  0
  1 37  1  0  0  0  0
  1 38  1  0  0  0  0
  1 39  1  0  0  0  0
  2  3  1  0  0  0  0
  3  4  1  0  0  0  0
  3 36  2  0  0  0  0
  4  5  2  0  0  0  0
  4 40  1  0  0  0  0
  5  6  1  0  0  0  0
  5  8  1  0  0  0  0
  6  7  1  0  0  0  0
  7 41  1  0  0  0  0
  7 42  1  0  0  0  0
  7 43  1  0  0  0  0
  8  9  2  0  0  0  0
  8 44  1  0  0  0  0
  9 10  1  0  0  0  0
  9 36  1  0  0  0  0
 10 11  1  0  0  0  0
 10 20  1  0  0  0  0
 11 12  1  0  0  0  0
 11 45  1  0  0  0  0
 11 46  1  0  0  0  0
 12 13  2  0  0  0  0
 12 19  1  0  0  0  0
 13 14  1  0  0  0  0
 13 47  1  0  0  0  0
 14 15  1  0  0  0  0
 14 18  1  0  0  0  0
 15 16  1  0  0  0  0
 15 48  1  0  0  0  0
 15 49  1  0  0  0  0
 16 17  1  0  0  0  0
 16 50  1  0  0  0  0
 16 51  1  0  0  0  0
 17 52  1  0  0  0  0
 18 19  2  0  0  0  0
 20 21  1  0  0  0  0
 20 35  2  0  0  0  0
 21 22  2  0  0  0  0
 21 53  1  0  0  0  0
 22 23  1  0  0  0  0
 22 54  1  0  0  0  0
 23 24  1  0  0  0  0
 23 34  2  0  0  0  0
 24 25  2  0  0  0  0
 25 26  1  0  0  0  0
 25 55  1  0  0  0  0
 26 27  1  0  0  0  0
 26 33  2  0  0  0  0
 27 28  1  0  0  0  0
 27 32  2  0  0  0  0
 28 29  2  0  0  0  0
 28 56  1  0  0  0  0
 29 30  1  0  0  0  0
 30 31  1  0  0  0  0
 30 32  1  0  0  0  0
 31 57  1  0  0  0  0
 31 58  1  0  0  0  0
 31 59  1  0  0  0  0
 32 60  1  0  0  0  0
 33 34  1  0  0  0  0
 34 35  1  0  0  0  0
 35 61  1  0  0  0  0
 36 62  1  0  0  0  0
M  END
$$$$
