CHEMBL574646
 OpenBabel04072215383D

 36 38  0  0  0  0  0  0  0  0999 V2000
   -0.0086   -1.9905   -0.1209 O   0  0  0  0  0  0  0  0  0  0  0  0
   -0.0010   -0.7654   -0.0183 C   0  0  0  0  0  0  0  0  0  0  0  0
   -1.2796    0.0202    0.0449 C   0  0  0  0  0  0  0  0  0  0  0  0
   -2.4361   -0.6476   -0.1586 C   0  0  0  0  0  0  0  0  0  0  0  0
   -3.7779   -0.0434   -0.1764 C   0  0  0  0  0  0  0  0  0  0  0  0
   -4.7735   -0.5703   -0.9909 C   0  0  0  0  0  0  0  0  0  0  0  0
   -5.9893    0.1061   -1.0863 C   0  0  0  0  0  0  0  0  0  0  0  0
   -6.1801    1.2767   -0.3624 C   0  0  0  0  0  0  0  0  0  0  0  0
   -5.1548    1.7062    0.4583 C   0  0  0  0  0  0  0  0  0  0  0  0
   -3.9734    1.0640    0.5782 N   0  0  0  0  0  0  0  0  0  0  0  0
   -1.1645    1.4961    0.2739 C   0  0  0  0  0  0  0  0  0  0  0  0
    0.0153    2.0567   -0.3694 N   0  0  0  0  0  0  0  0  0  0  0  0
    1.2063    1.4849    0.2440 C   0  0  0  0  0  0  0  0  0  0  0  0
    1.2859    0.0032    0.0510 C   0  0  0  0  0  0  0  0  0  0  0  0
    2.4393   -0.6829   -0.0958 C   0  0  0  0  0  0  0  0  0  0  0  0
    3.7848   -0.0986    0.0065 C   0  0  0  0  0  0  0  0  0  0  0  0
    4.8404   -0.6009   -0.7444 C   0  0  0  0  0  0  0  0  0  0  0  0
    6.0938   -0.0013   -0.6219 C   0  0  0  0  0  0  0  0  0  0  0  0
    6.2584    1.0723    0.2455 C   0  0  0  0  0  0  0  0  0  0  0  0
    5.1588    1.5005    0.9646 C   0  0  0  0  0  0  0  0  0  0  0  0
    3.9372    0.9348    0.8703 N   0  0  0  0  0  0  0  0  0  0  0  0
   -2.4149   -1.7161   -0.3628 H   0  0  0  0  0  0  0  0  0  0  0  0
   -4.6026   -1.4672   -1.5769 H   0  0  0  0  0  0  0  0  0  0  0  0
   -6.7731   -0.2669   -1.7391 H   0  0  0  0  0  0  0  0  0  0  0  0
   -7.1013    1.8429   -0.4383 H   0  0  0  0  0  0  0  0  0  0  0  0
   -5.2475    2.6146    1.0466 H   0  0  0  0  0  0  0  0  0  0  0  0
   -1.1624    1.7077    1.3510 H   0  0  0  0  0  0  0  0  0  0  0  0
   -2.0022    2.0407   -0.1647 H   0  0  0  0  0  0  0  0  0  0  0  0
    0.0214    3.0634   -0.2171 H   0  0  0  0  0  0  0  0  0  0  0  0
    1.2449    1.7305    1.3124 H   0  0  0  0  0  0  0  0  0  0  0  0
    2.0451    1.9912   -0.2419 H   0  0  0  0  0  0  0  0  0  0  0  0
    2.4183   -1.7522   -0.2921 H   0  0  0  0  0  0  0  0  0  0  0  0
    4.6972   -1.4299   -1.4297 H   0  0  0  0  0  0  0  0  0  0  0  0
    6.9348   -0.3661   -1.2047 H   0  0  0  0  0  0  0  0  0  0  0  0
    7.2181    1.5638    0.3589 H   0  0  0  0  0  0  0  0  0  0  0  0
    5.2276    2.3375    1.6538 H   0  0  0  0  0  0  0  0  0  0  0  0
  1  2  2  0  0  0  0
  2  3  1  0  0  0  0
  2 14  1  0  0  0  0
  3  4  2  0  0  0  0
  3 11  1  0  0  0  0
  4  5  1  0  0  0  0
  4 22  1  0  0  0  0
  5  6  1  0  0  0  0
  5 10  2  0  0  0  0
  6  7  2  0  0  0  0
  6 23  1  0  0  0  0
  7  8  1  0  0  0  0
  7 24  1  0  0  0  0
  8  9  2  0  0  0  0
  8 25  1  0  0  0  0
  9 10  1  0  0  0  0
  9 26  1  0  0  0  0
 11 12  1  0  0  0  0
 11 27  1  0  0  0  0
 11 28  1  0  0  0  0
 12 13  1  0  0  0  0
 12 29  1  0  0  0  0
 13 14  1  0  0  0  0
 13 30  1  0  0  0  0
 13 31  1  0  0  0  0
 14 15  2  0  0  0  0
 15 16  1  0  0  0  0
 15 32  1  0  0  0  0
 16 17  1  0  0  0  0
 16 21  2  0  0  0  0
 17 18  2  0  0  0  0
 17 33  1  0  0  0  0
 18 19  1  0  0  0  0
 18 34  1  0  0  0  0
 19 20  2  0  0  0  0
 19 35  1  0  0  0  0
 20 21  1  0  0  0  0
 20 36  1  0  0  0  0
M  END
$$$$
