CHEMBL3986102
 OpenBabel04072215373D

 65 68  0  0  1  0  0  0  0  0999 V2000
    1.0408   -7.3636    6.6591 C   0  0  0  0  0  0  0  0  0  0  0  0
    1.5582   -7.1055    5.3601 O   0  0  0  0  0  0  0  0  0  0  0  0
    1.5596   -8.2820    4.5414 C   0  0  0  0  0  0  0  0  0  0  0  0
    1.9726   -7.8864    3.1167 C   0  0  0  0  0  0  0  0  0  0  0  0
    3.3470   -7.4050    3.0970 N   0  0  0  0  0  0  0  0  0  0  0  0
    4.0549   -6.9476    2.0114 C   0  0  0  0  0  0  0  0  0  0  0  0
    3.6504   -6.4756    0.8735 N   0  0  0  0  0  0  0  0  0  0  0  0
    2.3592   -6.3333    0.5864 C   0  0  0  0  0  0  0  0  0  0  0  0
    1.2363   -6.1952    0.3089 N   0  0  0  0  0  0  0  0  0  0  0  0
    5.4139   -6.9893    2.2717 N   0  0  0  0  0  0  0  0  0  0  0  0
    6.0856   -7.9992    3.1042 C   0  0  0  0  0  0  0  0  0  0  0  0
    7.0360   -7.3096    4.0970 C   0  0  0  0  0  0  0  0  0  0  0  0
    7.9359   -6.3891    3.4567 O   0  0  0  0  0  0  0  0  0  0  0  0
    7.2634   -5.4234    2.6191 C   0  0  3  0  0  0  0  0  0  0  0  0
    6.3513   -4.4746    3.4016 C   0  0  0  0  0  0  0  0  0  0  0  0
    7.0135   -3.6991    4.4058 O   0  0  0  0  0  0  0  0  0  0  0  0
    6.1361   -2.9859    5.1999 C   0  0  0  0  0  0  0  0  0  0  0  0
    4.7504   -2.9463    4.9368 C   0  0  0  0  0  0  0  0  0  0  0  0
    3.8407   -2.3062    5.7488 C   0  0  0  0  0  0  0  0  0  0  0  0
    2.5536   -2.3800    5.4078 N   0  0  0  0  0  0  0  0  0  0  0  0
    1.6913   -1.7659    6.2152 C   0  0  0  0  0  0  0  0  0  0  0  0
    2.0147   -1.0758    7.3071 N   0  0  0  0  0  0  0  0  0  0  0  0
    3.3250   -1.0005    7.6247 C   0  0  0  0  0  0  0  0  0  0  0  0
    3.7062   -0.2404    8.7624 N   0  0  0  0  0  0  0  0  0  0  0  0
    2.7851    0.2233    9.7213 C   0  0  0  0  0  0  0  0  0  0  0  0
    1.8444   -0.6559   10.2777 C   0  0  0  0  0  0  0  0  0  0  0  0
    0.8680   -0.1966   11.1556 C   0  0  0  0  0  0  0  0  0  0  0  0
    0.8257    1.1546   11.4995 C   0  0  0  0  0  0  0  0  0  0  0  0
   -0.4411    1.6718   12.5519 Cl  0  0  0  0  0  0  0  0  0  0  0  0
    1.7795    2.0356   10.9791 C   0  0  0  0  0  0  0  0  0  0  0  0
    1.7887    3.7215   11.3625 Cl  0  0  0  0  0  0  0  0  0  0  0  0
    2.7616    1.5680   10.0986 C   0  0  0  0  0  0  0  0  0  0  0  0
    4.3150   -1.6387    6.8696 C   0  0  0  0  0  0  0  0  0  0  0  0
    5.7026   -1.6619    7.1624 C   0  0  0  0  0  0  0  0  0  0  0  0
    6.6158   -2.3113    6.3256 C   0  0  0  0  0  0  0  0  0  0  0  0
    7.9016   -2.2389    6.7809 O   0  0  0  0  0  0  0  0  0  0  0  0
    8.9381   -2.2134    5.8088 C   0  0  0  0  0  0  0  0  0  0  0  0
    6.3887   -6.1392    1.5590 C   0  0  0  0  0  0  0  0  0  0  0  0
    1.0162   -6.4210    7.2129 H   0  0  0  0  0  0  0  0  0  0  0  0
    1.6874   -8.0671    7.1912 H   0  0  0  0  0  0  0  0  0  0  0  0
    0.0210   -7.7575    6.6007 H   0  0  0  0  0  0  0  0  0  0  0  0
    0.5520   -8.7131    4.5166 H   0  0  0  0  0  0  0  0  0  0  0  0
    2.2558   -9.0140    4.9659 H   0  0  0  0  0  0  0  0  0  0  0  0
    1.2875   -7.1038    2.7865 H   0  0  0  0  0  0  0  0  0  0  0  0
    1.8886   -8.7573    2.4585 H   0  0  0  0  0  0  0  0  0  0  0  0
    3.5663   -6.8917    3.9495 H   0  0  0  0  0  0  0  0  0  0  0  0
    6.6680   -8.6508    2.4413 H   0  0  0  0  0  0  0  0  0  0  0  0
    5.3863   -8.6402    3.6491 H   0  0  0  0  0  0  0  0  0  0  0  0
    7.6494   -8.0640    4.6002 H   0  0  0  0  0  0  0  0  0  0  0  0
    6.4779   -6.7839    4.8791 H   0  0  0  0  0  0  0  0  0  0  0  0
    8.0491   -4.8396    2.1279 H   0  0  0  0  0  0  0  0  0  0  0  0
    5.5788   -5.0758    3.8931 H   0  0  0  0  0  0  0  0  0  0  0  0
    5.8886   -3.7888    2.6798 H   0  0  0  0  0  0  0  0  0  0  0  0
    4.3050   -3.4429    4.0779 H   0  0  0  0  0  0  0  0  0  0  0  0
    0.6385   -1.8337    5.9577 H   0  0  0  0  0  0  0  0  0  0  0  0
    4.3776    0.4675    8.4771 H   0  0  0  0  0  0  0  0  0  0  0  0
    1.8573   -1.7091    9.9960 H   0  0  0  0  0  0  0  0  0  0  0  0
    0.1346   -0.8967   11.5466 H   0  0  0  0  0  0  0  0  0  0  0  0
    3.4829    2.2651    9.6803 H   0  0  0  0  0  0  0  0  0  0  0  0
    6.0781   -1.1794    8.0636 H   0  0  0  0  0  0  0  0  0  0  0  0
    9.7372   -1.5754    6.2035 H   0  0  0  0  0  0  0  0  0  0  0  0
    8.6270   -1.7814    4.8525 H   0  0  0  0  0  0  0  0  0  0  0  0
    9.3484   -3.2183    5.6784 H   0  0  0  0  0  0  0  0  0  0  0  0
    7.0122   -6.7670    0.9134 H   0  0  0  0  0  0  0  0  0  0  0  0
    5.8965   -5.3917    0.9249 H   0  0  0  0  0  0  0  0  0  0  0  0
  1  2  1  0  0  0  0
  1 39  1  0  0  0  0
  1 40  1  0  0  0  0
  1 41  1  0  0  0  0
  2  3  1  0  0  0  0
  3  4  1  0  0  0  0
  3 42  1  0  0  0  0
  3 43  1  0  0  0  0
  4  5  1  0  0  0  0
  4 44  1  0  0  0  0
  4 45  1  0  0  0  0
  5  6  1  0  0  0  0
  5 46  1  0  0  0  0
  6  7  2  0  0  0  0
  6 10  1  0  0  0  0
  7  8  1  0  0  0  0
  8  9  3  0  0  0  0
 10 11  1  0  0  0  0
 10 38  1  0  0  0  0
 11 12  1  0  0  0  0
 11 47  1  0  0  0  0
 11 48  1  0  0  0  0
 12 13  1  0  0  0  0
 12 49  1  0  0  0  0
 12 50  1  0  0  0  0
 13 14  1  0  0  0  0
 14 15  1  0  0  0  0
 14 38  1  0  0  0  0
 14 51  1  0  0  0  0
 15 16  1  0  0  0  0
 15 52  1  0  0  0  0
 15 53  1  0  0  0  0
 16 17  1  0  0  0  0
 17 18  1  0  0  0  0
 17 35  2  0  0  0  0
 18 19  2  0  0  0  0
 18 54  1  0  0  0  0
 19 20  1  0  0  0  0
 19 33  1  0  0  0  0
 20 21  2  0  0  0  0
 21 22  1  0  0  0  0
 21 55  1  0  0  0  0
 22 23  2  0  0  0  0
 23 24  1  0  0  0  0
 23 33  1  0  0  0  0
 24 25  1  0  0  0  0
 24 56  1  0  0  0  0
 25 26  1  0  0  0  0
 25 32  2  0  0  0  0
 26 27  2  0  0  0  0
 26 57  1  0  0  0  0
 27 28  1  0  0  0  0
 27 58  1  0  0  0  0
 28 29  1  0  0  0  0
 28 30  2  0  0  0  0
 30 31  1  0  0  0  0
 30 32  1  0  0  0  0
 32 59  1  0  0  0  0
 33 34  2  0  0  0  0
 34 35  1  0  0  0  0
 34 60  1  0  0  0  0
 35 36  1  0  0  0  0
 36 37  1  0  0  0  0
 37 61  1  0  0  0  0
 37 62  1  0  0  0  0
 37 63  1  0  0  0  0
 38 64  1  0  0  0  0
 38 65  1  0  0  0  0
M  END
$$$$
