CHEMBL3954891
 OpenBabel04072215373D

 55 58  0  0  0  0  0  0  0  0999 V2000
    3.4366   10.9885    2.0734 C   0  0  0  0  0  0  0  0  0  0  0  0
    4.3702    9.9966    1.3960 C   0  0  0  0  0  0  0  0  0  0  0  0
    4.6946   10.4924    0.1668 F   0  0  0  0  0  0  0  0  0  0  0  0
    5.5464   10.0027    2.0944 F   0  0  0  0  0  0  0  0  0  0  0  0
    3.7570    8.6218    1.3355 C   0  0  0  0  0  0  0  0  0  0  0  0
    3.9639    7.7071    2.3814 C   0  0  0  0  0  0  0  0  0  0  0  0
    3.3593    6.4441    2.3783 C   0  0  0  0  0  0  0  0  0  0  0  0
    3.5146    5.5359    3.4496 N   0  0  0  0  0  0  0  0  0  0  0  0
    3.8035    5.9144    4.7495 C   0  0  0  0  0  0  0  0  0  0  0  0
    3.7903    7.0739    5.1511 O   0  0  0  0  0  0  0  0  0  0  0  0
    4.1301    4.8297    5.5443 N   0  0  0  0  0  0  0  0  0  0  0  0
    4.4702    4.9839    6.9120 C   0  0  0  0  0  0  0  0  0  0  0  0
    3.8033    5.8711    7.7616 C   0  0  0  0  0  0  0  0  0  0  0  0
    4.2293    6.0342    9.0872 C   0  0  0  0  0  0  0  0  0  0  0  0
    5.3295    5.3189    9.5707 C   0  0  0  0  0  0  0  0  0  0  0  0
    5.6955    5.5608   10.8806 O   0  0  0  0  0  0  0  0  0  0  0  0
    7.0303    5.5156   11.2345 C   0  0  0  0  0  0  0  0  0  0  0  0
    8.0614    5.9006   10.3816 C   0  0  0  0  0  0  0  0  0  0  0  0
    9.3529    5.7576   10.8371 C   0  0  0  0  0  0  0  0  0  0  0  0
    9.6603    5.3309   12.0756 N   0  0  0  0  0  0  0  0  0  0  0  0
    8.6645    5.0364   12.9256 C   0  0  0  0  0  0  0  0  0  0  0  0
    8.9710    4.6250   14.2348 N   0  0  0  0  0  0  0  0  0  0  0  0
   10.2566    4.4935   14.7210 C   0  0  0  0  0  0  0  0  0  0  0  0
   11.3081    4.7390   14.1501 O   0  0  0  0  0  0  0  0  0  0  0  0
   10.3082    3.9425   16.1143 C   0  0  0  0  0  0  0  0  0  0  0  0
   11.6314    3.8141   16.8422 C   0  0  0  0  0  0  0  0  0  0  0  0
   10.9417    2.5849   16.3301 C   0  0  0  0  0  0  0  0  0  0  0  0
    7.3303    5.1203   12.5416 C   0  0  0  0  0  0  0  0  0  0  0  0
    5.9513    4.3785    8.7452 C   0  0  0  0  0  0  0  0  0  0  0  0
    5.5228    4.2264    7.4279 C   0  0  0  0  0  0  0  0  0  0  0  0
    6.1830    3.3788    6.6227 F   0  0  0  0  0  0  0  0  0  0  0  0
    2.5874    6.0663    1.2765 C   0  0  0  0  0  0  0  0  0  0  0  0
    2.3716    6.9730    0.2304 C   0  0  0  0  0  0  0  0  0  0  0  0
    2.9419    8.2428    0.2726 C   0  0  0  0  0  0  0  0  0  0  0  0
    2.6849    9.1013   -0.7231 F   0  0  0  0  0  0  0  0  0  0  0  0
    3.8962   11.9821    2.0924 H   0  0  0  0  0  0  0  0  0  0  0  0
    3.2342   10.7001    3.1108 H   0  0  0  0  0  0  0  0  0  0  0  0
    2.4841   11.0739    1.5407 H   0  0  0  0  0  0  0  0  0  0  0  0
    4.6163    8.0072    3.1997 H   0  0  0  0  0  0  0  0  0  0  0  0
    3.1064    4.6177    3.3454 H   0  0  0  0  0  0  0  0  0  0  0  0
    4.6180    4.0851    5.0608 H   0  0  0  0  0  0  0  0  0  0  0  0
    2.9517    6.4478    7.4065 H   0  0  0  0  0  0  0  0  0  0  0  0
    3.7074    6.7374    9.7324 H   0  0  0  0  0  0  0  0  0  0  0  0
    7.8846    6.2787    9.3823 H   0  0  0  0  0  0  0  0  0  0  0  0
   10.2066    5.9815   10.2045 H   0  0  0  0  0  0  0  0  0  0  0  0
    8.2022    4.3914   14.8422 H   0  0  0  0  0  0  0  0  0  0  0  0
    9.4606    4.1960   16.7428 H   0  0  0  0  0  0  0  0  0  0  0  0
   11.6492    3.9794   17.9128 H   0  0  0  0  0  0  0  0  0  0  0  0
   12.5348    4.1379   16.3342 H   0  0  0  0  0  0  0  0  0  0  0  0
   10.4916    1.9161   17.0528 H   0  0  0  0  0  0  0  0  0  0  0  0
   11.3895    2.0847   15.4769 H   0  0  0  0  0  0  0  0  0  0  0  0
    6.5257    4.8825   13.2274 H   0  0  0  0  0  0  0  0  0  0  0  0
    6.7863    3.7796    9.0915 H   0  0  0  0  0  0  0  0  0  0  0  0
    2.1151    5.0890    1.2288 H   0  0  0  0  0  0  0  0  0  0  0  0
    1.7439    6.6999   -0.6144 H   0  0  0  0  0  0  0  0  0  0  0  0
  1  2  1  0  0  0  0
  1 36  1  0  0  0  0
  1 37  1  0  0  0  0
  1 38  1  0  0  0  0
  2  3  1  0  0  0  0
  2  4  1  0  0  0  0
  2  5  1  0  0  0  0
  5  6  1  0  0  0  0
  5 34  2  0  0  0  0
  6  7  2  0  0  0  0
  6 39  1  0  0  0  0
  7  8  1  0  0  0  0
  7 32  1  0  0  0  0
  8  9  1  0  0  0  0
  8 40  1  0  0  0  0
  9 10  2  0  0  0  0
  9 11  1  0  0  0  0
 11 12  1  0  0  0  0
 11 41  1  0  0  0  0
 12 13  1  0  0  0  0
 12 30  2  0  0  0  0
 13 14  2  0  0  0  0
 13 42  1  0  0  0  0
 14 15  1  0  0  0  0
 14 43  1  0  0  0  0
 15 16  1  0  0  0  0
 15 29  2  0  0  0  0
 16 17  1  0  0  0  0
 17 18  1  0  0  0  0
 17 28  2  0  0  0  0
 18 19  2  0  0  0  0
 18 44  1  0  0  0  0
 19 20  1  0  0  0  0
 19 45  1  0  0  0  0
 20 21  2  0  0  0  0
 21 22  1  0  0  0  0
 21 28  1  0  0  0  0
 22 23  1  0  0  0  0
 22 46  1  0  0  0  0
 23 24  2  0  0  0  0
 23 25  1  0  0  0  0
 25 26  1  0  0  0  0
 25 27  1  0  0  0  0
 25 47  1  0  0  0  0
 26 27  1  0  0  0  0
 26 48  1  0  0  0  0
 26 49  1  0  0  0  0
 27 50  1  0  0  0  0
 27 51  1  0  0  0  0
 28 52  1  0  0  0  0
 29 30  1  0  0  0  0
 29 53  1  0  0  0  0
 30 31  1  0  0  0  0
 32 33  2  0  0  0  0
 32 54  1  0  0  0  0
 33 34  1  0  0  0  0
 33 55  1  0  0  0  0
 34 35  1  0  0  0  0
M  END
$$$$
