CHEMBL3944578
 OpenBabel04072215373D

 56 59  0  0  0  0  0  0  0  0999 V2000
    3.2970    5.9175    1.6190 C   0  0  0  0  0  0  0  0  0  0  0  0
    1.8974    6.3524    1.2749 C   0  0  0  0  0  0  0  0  0  0  0  0
    1.5719    7.7111    1.3210 C   0  0  0  0  0  0  0  0  0  0  0  0
    0.2953    8.1274    0.9664 C   0  0  0  0  0  0  0  0  0  0  0  0
   -0.6646    7.1898    0.5834 C   0  0  0  0  0  0  0  0  0  0  0  0
   -1.8157    7.7059    0.1290 F   0  0  0  0  0  0  0  0  0  0  0  0
   -0.3997    5.8163    0.5927 C   0  0  0  0  0  0  0  0  0  0  0  0
   -1.3501    4.7935    0.3101 N   0  0  0  0  0  0  0  0  0  0  0  0
   -2.7304    4.9534    0.2932 C   0  0  0  0  0  0  0  0  0  0  0  0
   -3.3400    5.9911    0.5105 O   0  0  0  0  0  0  0  0  0  0  0  0
   -3.3980    3.7473    0.0746 N   0  0  0  0  0  0  0  0  0  0  0  0
   -4.8233    3.7342    0.0352 C   0  0  0  0  0  0  0  0  0  0  0  0
   -5.5571    4.6468   -0.7232 C   0  0  0  0  0  0  0  0  0  0  0  0
   -6.9553    4.6660   -0.6461 C   0  0  0  0  0  0  0  0  0  0  0  0
   -7.6325    3.7842    0.2011 C   0  0  0  0  0  0  0  0  0  0  0  0
   -9.0006    3.9517    0.2607 O   0  0  0  0  0  0  0  0  0  0  0  0
   -9.6971    3.5122    1.3674 C   0  0  0  0  0  0  0  0  0  0  0  0
   -9.2539    3.7007    2.6738 C   0  0  0  0  0  0  0  0  0  0  0  0
   -9.9777    3.1377    3.7088 C   0  0  0  0  0  0  0  0  0  0  0  0
  -11.1139    2.4265    3.5684 N   0  0  0  0  0  0  0  0  0  0  0  0
  -11.5883    2.3124    2.2965 C   0  0  0  0  0  0  0  0  0  0  0  0
  -12.7412    1.5570    1.9049 C   0  0  0  0  0  0  0  0  0  0  0  0
  -12.9622    1.5848    0.5390 C   0  0  0  0  0  0  0  0  0  0  0  0
  -13.9478    0.8710   -0.2785 C   0  0  0  0  0  0  0  0  0  0  0  0
  -13.9407    0.9326   -1.5059 O   0  0  0  0  0  0  0  0  0  0  0  0
  -14.9659    0.1639    0.3896 N   0  0  0  0  0  0  0  0  0  0  0  0
  -15.5276   -1.1341   -0.2248 S   0  0  0  0  0  0  0  0  0  0  0  0
  -16.6585   -0.7304   -1.5425 C   0  0  0  0  0  0  0  0  0  0  0  0
  -16.6320   -1.8168    0.9889 C   0  0  0  0  0  0  0  0  0  0  0  0
  -14.7054   -2.2341   -0.6879 O   0  0  0  0  0  0  0  0  0  0  0  0
  -11.8408    2.6240   -0.2380 S   0  0  0  0  0  0  0  0  0  0  0  0
  -10.9362    2.8718    1.1982 C   0  0  0  0  0  0  0  0  0  0  0  0
   -6.9048    2.8074    0.8882 C   0  0  0  0  0  0  0  0  0  0  0  0
   -5.5130    2.7976    0.8094 C   0  0  0  0  0  0  0  0  0  0  0  0
   -4.8226    1.9235    1.5589 F   0  0  0  0  0  0  0  0  0  0  0  0
    0.9147    5.4102    0.9120 C   0  0  0  0  0  0  0  0  0  0  0  0
    3.9309    6.7759    1.8635 H   0  0  0  0  0  0  0  0  0  0  0  0
    3.7536    5.4007    0.7677 H   0  0  0  0  0  0  0  0  0  0  0  0
    3.2874    5.2526    2.4905 H   0  0  0  0  0  0  0  0  0  0  0  0
    2.3088    8.4537    1.6116 H   0  0  0  0  0  0  0  0  0  0  0  0
    0.0349    9.1785    0.9638 H   0  0  0  0  0  0  0  0  0  0  0  0
   -1.0034    3.8585    0.2261 H   0  0  0  0  0  0  0  0  0  0  0  0
   -2.9867    2.9535    0.5461 H   0  0  0  0  0  0  0  0  0  0  0  0
   -5.0519    5.3703   -1.3628 H   0  0  0  0  0  0  0  0  0  0  0  0
   -7.5160    5.3908   -1.2347 H   0  0  0  0  0  0  0  0  0  0  0  0
   -8.3414    4.2477    2.8864 H   0  0  0  0  0  0  0  0  0  0  0  0
   -9.6212    3.2313    4.7316 H   0  0  0  0  0  0  0  0  0  0  0  0
  -13.3340    0.9759    2.6018 H   0  0  0  0  0  0  0  0  0  0  0  0
  -17.3013    0.0958   -1.2345 H   0  0  0  0  0  0  0  0  0  0  0  0
  -17.2666   -1.6146   -1.7559 H   0  0  0  0  0  0  0  0  0  0  0  0
  -16.0905   -0.4671   -2.4365 H   0  0  0  0  0  0  0  0  0  0  0  0
  -17.2979   -1.0315    1.3512 H   0  0  0  0  0  0  0  0  0  0  0  0
  -16.0312   -2.2188    1.8073 H   0  0  0  0  0  0  0  0  0  0  0  0
  -17.2086   -2.6205    0.5261 H   0  0  0  0  0  0  0  0  0  0  0  0
   -7.3871    2.0693    1.5193 H   0  0  0  0  0  0  0  0  0  0  0  0
    1.1771    4.3550    0.9046 H   0  0  0  0  0  0  0  0  0  0  0  0
  1  2  1  0  0  0  0
  1 37  1  0  0  0  0
  1 38  1  0  0  0  0
  1 39  1  0  0  0  0
  2  3  1  0  0  0  0
  2 36  2  0  0  0  0
  3  4  2  0  0  0  0
  3 40  1  0  0  0  0
  4  5  1  0  0  0  0
  4 41  1  0  0  0  0
  5  6  1  0  0  0  0
  5  7  2  0  0  0  0
  7  8  1  0  0  0  0
  7 36  1  0  0  0  0
  8  9  1  0  0  0  0
  8 42  1  0  0  0  0
  9 10  2  0  0  0  0
  9 11  1  0  0  0  0
 11 12  1  0  0  0  0
 11 43  1  0  0  0  0
 12 13  1  0  0  0  0
 12 34  2  0  0  0  0
 13 14  2  0  0  0  0
 13 44  1  0  0  0  0
 14 15  1  0  0  0  0
 14 45  1  0  0  0  0
 15 16  1  0  0  0  0
 15 33  2  0  0  0  0
 16 17  1  0  0  0  0
 17 18  1  0  0  0  0
 17 32  2  0  0  0  0
 18 19  2  0  0  0  0
 18 46  1  0  0  0  0
 19 20  1  0  0  0  0
 19 47  1  0  0  0  0
 20 21  2  0  0  0  0
 21 22  1  0  0  0  0
 21 32  1  0  0  0  0
 22 23  2  0  0  0  0
 22 48  1  0  0  0  0
 23 24  1  0  0  0  0
 23 31  1  0  0  0  0
 24 25  2  0  0  0  0
 24 26  1  0  0  0  0
 26 27  2  0  0  0  0
 27 28  1  0  0  0  0
 27 29  1  0  0  0  0
 27 30  2  0  0  0  0
 28 49  1  0  0  0  0
 28 50  1  0  0  0  0
 28 51  1  0  0  0  0
 29 52  1  0  0  0  0
 29 53  1  0  0  0  0
 29 54  1  0  0  0  0
 31 32  1  0  0  0  0
 33 34  1  0  0  0  0
 33 55  1  0  0  0  0
 34 35  1  0  0  0  0
 36 56  1  0  0  0  0
M  END
$$$$
