CHEMBL444138
 OpenBabel04072215383D

 38 40  0  0  0  0  0  0  0  0999 V2000
    1.7052    6.4845    2.5908 C   0  0  0  0  0  0  0  0  0  0  0  0
    2.0755    5.1974    1.9164 C   0  0  0  0  0  0  0  0  0  0  0  0
    3.3390    5.0436    1.3369 C   0  0  0  0  0  0  0  0  0  0  0  0
    3.6958    3.8393    0.7274 C   0  0  0  0  0  0  0  0  0  0  0  0
    2.8089    2.7566    0.7044 C   0  0  0  0  0  0  0  0  0  0  0  0
    3.1097    1.5587    0.0053 N   0  0  0  0  0  0  0  0  0  0  0  0
    4.4114    0.9907   -0.0763 C   0  0  0  0  0  0  0  0  0  0  0  0
    4.6756    0.1272   -1.1214 C   0  0  0  0  0  0  0  0  0  0  0  0
    5.9214   -0.4382   -1.1404 C   0  0  0  0  0  0  0  0  0  0  0  0
    6.8310   -0.2263   -0.1844 N   0  0  0  0  0  0  0  0  0  0  0  0
    6.4871    0.5784    0.8328 C   0  0  0  0  0  0  0  0  0  0  0  0
    7.3895    0.7731    1.8809 N   0  0  0  0  0  0  0  0  0  0  0  0
    8.3404   -0.1485    2.3569 C   0  0  0  0  0  0  0  0  0  0  0  0
    9.4885    0.3167    3.0096 C   0  0  0  0  0  0  0  0  0  0  0  0
   10.4970   -0.5711    3.4010 C   0  0  0  0  0  0  0  0  0  0  0  0
   10.3581   -1.9388    3.1660 C   0  0  0  0  0  0  0  0  0  0  0  0
    9.2018   -2.4139    2.5530 C   0  0  0  0  0  0  0  0  0  0  0  0
    8.9937   -4.2652    2.2342 Br  0  0  0  0  0  0  0  0  0  0  0  0
    8.2025   -1.5297    2.1568 C   0  0  0  0  0  0  0  0  0  0  0  0
    5.3119    1.2137    0.9038 N   0  0  0  0  0  0  0  0  0  0  0  0
    1.5264    2.9254    1.2378 C   0  0  0  0  0  0  0  0  0  0  0  0
    1.1751    4.1298    1.8499 C   0  0  0  0  0  0  0  0  0  0  0  0
   -0.0692    4.2885    2.3971 O   0  0  0  0  0  0  0  0  0  0  0  0
    2.5320    7.2031    2.5578 H   0  0  0  0  0  0  0  0  0  0  0  0
    1.4685    6.3025    3.6441 H   0  0  0  0  0  0  0  0  0  0  0  0
    0.8452    6.9415    2.0947 H   0  0  0  0  0  0  0  0  0  0  0  0
    4.0585    5.8584    1.3531 H   0  0  0  0  0  0  0  0  0  0  0  0
    4.6790    3.7563    0.2718 H   0  0  0  0  0  0  0  0  0  0  0  0
    2.7263    1.6535   -0.9312 H   0  0  0  0  0  0  0  0  0  0  0  0
    3.9567   -0.0877   -1.8988 H   0  0  0  0  0  0  0  0  0  0  0  0
    6.2354   -1.1037   -1.9375 H   0  0  0  0  0  0  0  0  0  0  0  0
    6.9929    1.3916    2.5748 H   0  0  0  0  0  0  0  0  0  0  0  0
    9.6284    1.3826    3.1730 H   0  0  0  0  0  0  0  0  0  0  0  0
   11.4015   -0.1922    3.8697 H   0  0  0  0  0  0  0  0  0  0  0  0
   11.1521   -2.6217    3.4548 H   0  0  0  0  0  0  0  0  0  0  0  0
    7.3077   -1.9226    1.6815 H   0  0  0  0  0  0  0  0  0  0  0  0
    0.8186    2.1053    1.1877 H   0  0  0  0  0  0  0  0  0  0  0  0
   -0.5513    3.4497    2.3185 H   0  0  0  0  0  0  0  0  0  0  0  0
  1  2  1  0  0  0  0
  1 24  1  0  0  0  0
  1 25  1  0  0  0  0
  1 26  1  0  0  0  0
  2  3  1  0  0  0  0
  2 22  2  0  0  0  0
  3  4  2  0  0  0  0
  3 27  1  0  0  0  0
  4  5  1  0  0  0  0
  4 28  1  0  0  0  0
  5  6  1  0  0  0  0
  5 21  2  0  0  0  0
  6  7  1  0  0  0  0
  6 29  1  0  0  0  0
  7  8  1  0  0  0  0
  7 20  2  0  0  0  0
  8  9  2  0  0  0  0
  8 30  1  0  0  0  0
  9 10  1  0  0  0  0
  9 31  1  0  0  0  0
 10 11  2  0  0  0  0
 11 12  1  0  0  0  0
 11 20  1  0  0  0  0
 12 13  1  0  0  0  0
 12 32  1  0  0  0  0
 13 14  1  0  0  0  0
 13 19  2  0  0  0  0
 14 15  2  0  0  0  0
 14 33  1  0  0  0  0
 15 16  1  0  0  0  0
 15 34  1  0  0  0  0
 16 17  2  0  0  0  0
 16 35  1  0  0  0  0
 17 18  1  0  0  0  0
 17 19  1  0  0  0  0
 19 36  1  0  0  0  0
 21 22  1  0  0  0  0
 21 37  1  0  0  0  0
 22 23  1  0  0  0  0
 23 38  1  0  0  0  0
M  END
$$$$
