CHEMBL398196
 OpenBabel04072215373D

 56 60  0  0  0  0  0  0  0  0999 V2000
    2.3739   -0.4427    1.5862 C   0  0  0  0  0  0  0  0  0  0  0  0
    0.8825   -0.3144    1.5483 C   0  0  0  0  0  0  0  0  0  0  0  0
    0.2748    0.8723    1.9741 C   0  0  0  0  0  0  0  0  0  0  0  0
   -1.1072    0.9926    1.9504 C   0  0  0  0  0  0  0  0  0  0  0  0
   -1.8930   -0.0693    1.5021 C   0  0  0  0  0  0  0  0  0  0  0  0
   -1.3154   -1.2617    1.0572 C   0  0  0  0  0  0  0  0  0  0  0  0
   -2.0779   -2.3650    0.6006 N   0  0  0  0  0  0  0  0  0  0  0  0
   -3.4462   -2.3733    0.3959 C   0  0  0  0  0  0  0  0  0  0  0  0
   -4.1759   -1.3930    0.5131 O   0  0  0  0  0  0  0  0  0  0  0  0
   -3.9291   -3.6440    0.0927 N   0  0  0  0  0  0  0  0  0  0  0  0
   -5.3144   -3.8280   -0.1330 C   0  0  0  0  0  0  0  0  0  0  0  0
   -6.0490   -2.9071   -0.8822 C   0  0  0  0  0  0  0  0  0  0  0  0
   -7.4411   -2.9787   -0.9240 C   0  0  0  0  0  0  0  0  0  0  0  0
   -8.1274   -4.0023   -0.2538 C   0  0  0  0  0  0  0  0  0  0  0  0
   -9.5990   -4.0203   -0.2420 C   0  0  0  0  0  0  0  0  0  0  0  0
  -10.2639   -3.6980   -1.4069 C   0  0  0  0  0  0  0  0  0  0  0  0
  -11.9394   -3.8058   -1.2708 S   0  0  0  0  0  0  0  0  0  0  0  0
  -11.8812   -4.1681    0.4237 C   0  0  0  0  0  0  0  0  0  0  0  0
  -12.9920   -4.3336    1.2976 C   0  0  0  0  0  0  0  0  0  0  0  0
  -14.4099   -4.1153    0.9253 C   0  0  0  0  0  0  0  0  0  0  0  0
  -15.4318   -4.9571    1.4119 C   0  0  0  0  0  0  0  0  0  0  0  0
  -16.7798   -4.7425    1.0921 C   0  0  0  0  0  0  0  0  0  0  0  0
  -17.1289   -3.6906    0.2580 C   0  0  0  0  0  0  0  0  0  0  0  0
  -18.4191   -3.4448   -0.0902 O   0  0  0  0  0  0  0  0  0  0  0  0
  -16.1516   -2.8397   -0.2384 C   0  0  0  0  0  0  0  0  0  0  0  0
  -14.8134   -3.0358    0.1171 C   0  0  0  0  0  0  0  0  0  0  0  0
  -12.6293   -4.7258    2.5816 C   0  0  0  0  0  0  0  0  0  0  0  0
  -11.3755   -4.9045    3.0305 N   0  0  0  0  0  0  0  0  0  0  0  0
  -10.3328   -4.6761    2.2127 C   0  0  0  0  0  0  0  0  0  0  0  0
   -9.0989   -4.8062    2.8398 N   0  0  0  0  0  0  0  0  0  0  0  0
  -10.5409   -4.3129    0.8520 C   0  0  0  0  0  0  0  0  0  0  0  0
   -7.3709   -4.9945    0.3823 C   0  0  0  0  0  0  0  0  0  0  0  0
   -5.9724   -4.9043    0.4572 C   0  0  0  0  0  0  0  0  0  0  0  0
    0.0802   -1.3772    1.0886 C   0  0  0  0  0  0  0  0  0  0  0  0
    2.8444    0.4635    1.9895 H   0  0  0  0  0  0  0  0  0  0  0  0
    2.7700   -0.5984    0.5769 H   0  0  0  0  0  0  0  0  0  0  0  0
    2.6706   -1.2790    2.2275 H   0  0  0  0  0  0  0  0  0  0  0  0
    0.8727    1.7080    2.3291 H   0  0  0  0  0  0  0  0  0  0  0  0
   -1.5845    1.9112    2.2821 H   0  0  0  0  0  0  0  0  0  0  0  0
   -2.9668    0.0847    1.5215 H   0  0  0  0  0  0  0  0  0  0  0  0
   -1.5646   -3.1721    0.2639 H   0  0  0  0  0  0  0  0  0  0  0  0
   -3.4415   -4.4019    0.5475 H   0  0  0  0  0  0  0  0  0  0  0  0
   -5.5503   -2.0916   -1.4027 H   0  0  0  0  0  0  0  0  0  0  0  0
   -7.9713   -2.1977   -1.4644 H   0  0  0  0  0  0  0  0  0  0  0  0
   -9.8389   -3.4228   -2.3630 H   0  0  0  0  0  0  0  0  0  0  0  0
  -15.1924   -5.8025    2.0548 H   0  0  0  0  0  0  0  0  0  0  0  0
  -17.5348   -5.4059    1.5024 H   0  0  0  0  0  0  0  0  0  0  0  0
  -18.9853   -4.1102    0.3307 H   0  0  0  0  0  0  0  0  0  0  0  0
  -16.4263   -2.0170   -0.8931 H   0  0  0  0  0  0  0  0  0  0  0  0
  -14.0895   -2.3120   -0.2494 H   0  0  0  0  0  0  0  0  0  0  0  0
  -13.3850   -4.9011    3.3446 H   0  0  0  0  0  0  0  0  0  0  0  0
   -9.2570   -4.8749    3.8404 H   0  0  0  0  0  0  0  0  0  0  0  0
   -8.4401   -4.0867    2.5677 H   0  0  0  0  0  0  0  0  0  0  0  0
   -7.8628   -5.8319    0.8726 H   0  0  0  0  0  0  0  0  0  0  0  0
   -5.4313   -5.6389    1.0464 H   0  0  0  0  0  0  0  0  0  0  0  0
    0.5628   -2.2940    0.7575 H   0  0  0  0  0  0  0  0  0  0  0  0
  1  2  1  0  0  0  0
  1 35  1  0  0  0  0
  1 36  1  0  0  0  0
  1 37  1  0  0  0  0
  2  3  1  0  0  0  0
  2 34  2  0  0  0  0
  3  4  2  0  0  0  0
  3 38  1  0  0  0  0
  4  5  1  0  0  0  0
  4 39  1  0  0  0  0
  5  6  2  0  0  0  0
  5 40  1  0  0  0  0
  6  7  1  0  0  0  0
  6 34  1  0  0  0  0
  7  8  1  0  0  0  0
  7 41  1  0  0  0  0
  8  9  2  0  0  0  0
  8 10  1  0  0  0  0
 10 11  1  0  0  0  0
 10 42  1  0  0  0  0
 11 12  1  0  0  0  0
 11 33  2  0  0  0  0
 12 13  2  0  0  0  0
 12 43  1  0  0  0  0
 13 14  1  0  0  0  0
 13 44  1  0  0  0  0
 14 15  1  0  0  0  0
 14 32  2  0  0  0  0
 15 16  2  0  0  0  0
 15 31  1  0  0  0  0
 16 17  1  0  0  0  0
 16 45  1  0  0  0  0
 17 18  1  0  0  0  0
 18 19  1  0  0  0  0
 18 31  2  0  0  0  0
 19 20  1  0  0  0  0
 19 27  2  0  0  0  0
 20 21  1  0  0  0  0
 20 26  2  0  0  0  0
 21 22  2  0  0  0  0
 21 46  1  0  0  0  0
 22 23  1  0  0  0  0
 22 47  1  0  0  0  0
 23 24  1  0  0  0  0
 23 25  2  0  0  0  0
 24 48  1  0  0  0  0
 25 26  1  0  0  0  0
 25 49  1  0  0  0  0
 26 50  1  0  0  0  0
 27 28  1  0  0  0  0
 27 51  1  0  0  0  0
 28 29  2  0  0  0  0
 29 30  1  0  0  0  0
 29 31  1  0  0  0  0
 30 52  1  0  0  0  0
 30 53  1  0  0  0  0
 32 33  1  0  0  0  0
 32 54  1  0  0  0  0
 33 55  1  0  0  0  0
 34 56  1  0  0  0  0
M  END
$$$$
