CHEMBL3918628
 OpenBabel04072215373D

 69 71  0  0  0  0  0  0  0  0999 V2000
    1.5734   -3.1078   -4.1910 C   0  0  0  0  0  0  0  0  0  0  0  0
    2.8573   -3.4344   -3.6717 O   0  0  0  0  0  0  0  0  0  0  0  0
    3.2561   -2.7542   -2.5531 C   0  0  0  0  0  0  0  0  0  0  0  0
    2.5567   -1.7081   -1.9448 C   0  0  0  0  0  0  0  0  0  0  0  0
    3.0582   -1.1047   -0.7908 C   0  0  0  0  0  0  0  0  0  0  0  0
    4.2531   -1.5559   -0.2338 C   0  0  0  0  0  0  0  0  0  0  0  0
    4.9612   -2.6057   -0.8355 C   0  0  0  0  0  0  0  0  0  0  0  0
    6.1656   -3.1305   -0.1384 C   0  0  0  0  0  0  0  0  0  0  0  0
    6.1734   -3.0667    1.0877 O   0  0  0  0  0  0  0  0  0  0  0  0
    7.1912   -3.6074   -0.9420 N   0  0  0  0  0  0  0  0  0  0  0  0
    8.3923   -4.2004   -0.4790 C   0  0  0  0  0  0  0  0  0  0  0  0
    8.5566   -4.6447    0.8362 C   0  0  0  0  0  0  0  0  0  0  0  0
    9.7657   -5.2013    1.2617 C   0  0  0  0  0  0  0  0  0  0  0  0
   10.8173   -5.3491    0.3644 C   0  0  0  0  0  0  0  0  0  0  0  0
   10.6553   -4.9604   -0.9679 C   0  0  0  0  0  0  0  0  0  0  0  0
   11.7075   -5.2175   -1.9033 C   0  0  0  0  0  0  0  0  0  0  0  0
   12.5994   -5.4867   -2.6692 C   0  0  0  0  0  0  0  0  0  0  0  0
   13.6693   -5.8100   -3.5632 C   0  0  0  0  0  0  0  0  0  0  0  0
   13.9079   -7.1459   -3.9129 C   0  0  0  0  0  0  0  0  0  0  0  0
   14.9401   -7.4451   -4.8034 C   0  0  0  0  0  0  0  0  0  0  0  0
   15.2038   -8.8238   -5.3007 C   0  0  0  0  0  0  0  0  0  0  0  0
   16.3631   -9.0820   -5.6116 O   0  0  0  0  0  0  0  0  0  0  0  0
   14.1806   -9.7923   -5.3343 N   0  0  0  0  0  0  0  0  0  0  0  0
   14.1833  -10.8784   -6.4348 S   0  0  0  0  0  0  0  0  0  0  0  0
   14.4943  -10.6202   -7.8282 O   0  0  0  0  0  0  0  0  0  0  0  0
   15.2669  -12.2011   -5.8933 C   0  0  0  0  0  0  0  0  0  0  0  0
   15.3504  -13.3351   -6.9144 C   0  0  0  0  0  0  0  0  0  0  0  0
   16.2947  -14.4407   -6.4698 C   0  0  0  0  0  0  0  0  0  0  0  0
   17.6104  -13.9384   -6.3047 O   0  0  0  0  0  0  0  0  0  0  0  0
   12.5620  -11.6429   -6.4081 C   0  0  0  0  0  0  0  0  0  0  0  0
   11.4240  -10.6733   -6.7064 C   0  0  0  0  0  0  0  0  0  0  0  0
   11.5037  -10.0281   -8.0852 C   0  0  0  0  0  0  0  0  0  0  0  0
   10.3792   -9.1750   -8.2741 O   0  0  0  0  0  0  0  0  0  0  0  0
   15.7205   -6.4006   -5.2682 C   0  0  0  0  0  0  0  0  0  0  0  0
   15.5189   -5.0936   -4.9397 N   0  0  0  0  0  0  0  0  0  0  0  0
   14.4921   -4.8132   -4.1119 C   0  0  0  0  0  0  0  0  0  0  0  0
   14.2295   -3.4568   -3.9300 N   0  0  0  0  0  0  0  0  0  0  0  0
    9.4502   -4.3731   -1.3847 C   0  0  0  0  0  0  0  0  0  0  0  0
    4.4646   -3.1957   -2.0020 C   0  0  0  0  0  0  0  0  0  0  0  0
    1.3762   -3.7693   -5.0397 H   0  0  0  0  0  0  0  0  0  0  0  0
    1.5514   -2.0763   -4.5586 H   0  0  0  0  0  0  0  0  0  0  0  0
    0.7886   -3.2792   -3.4462 H   0  0  0  0  0  0  0  0  0  0  0  0
    1.6110   -1.3459   -2.3356 H   0  0  0  0  0  0  0  0  0  0  0  0
    2.5068   -0.2978   -0.3140 H   0  0  0  0  0  0  0  0  0  0  0  0
    4.6235   -1.1008    0.6833 H   0  0  0  0  0  0  0  0  0  0  0  0
    7.1320   -3.4230   -1.9356 H   0  0  0  0  0  0  0  0  0  0  0  0
    7.7492   -4.5897    1.5600 H   0  0  0  0  0  0  0  0  0  0  0  0
    9.8708   -5.5291    2.2924 H   0  0  0  0  0  0  0  0  0  0  0  0
   11.7520   -5.7867    0.7056 H   0  0  0  0  0  0  0  0  0  0  0  0
   13.2886   -7.9411   -3.5029 H   0  0  0  0  0  0  0  0  0  0  0  0
   14.8972  -12.5591   -4.9273 H   0  0  0  0  0  0  0  0  0  0  0  0
   16.2541  -11.7528   -5.7435 H   0  0  0  0  0  0  0  0  0  0  0  0
   15.7030  -12.9324   -7.8714 H   0  0  0  0  0  0  0  0  0  0  0  0
   14.3609  -13.7674   -7.0913 H   0  0  0  0  0  0  0  0  0  0  0  0
   16.3203  -15.2441   -7.2132 H   0  0  0  0  0  0  0  0  0  0  0  0
   15.9701  -14.8721   -5.5176 H   0  0  0  0  0  0  0  0  0  0  0  0
   17.8834  -13.5276   -7.1446 H   0  0  0  0  0  0  0  0  0  0  0  0
   12.4267  -12.0804   -5.4128 H   0  0  0  0  0  0  0  0  0  0  0  0
   12.5608  -12.4536   -7.1428 H   0  0  0  0  0  0  0  0  0  0  0  0
   11.3777   -9.8882   -5.9420 H   0  0  0  0  0  0  0  0  0  0  0  0
   10.4719  -11.2141   -6.6254 H   0  0  0  0  0  0  0  0  0  0  0  0
   11.5105  -10.7793   -8.8807 H   0  0  0  0  0  0  0  0  0  0  0  0
   12.3911   -9.4011   -8.1894 H   0  0  0  0  0  0  0  0  0  0  0  0
    9.5836   -9.7306   -8.2993 H   0  0  0  0  0  0  0  0  0  0  0  0
   16.5408   -6.5675   -5.9637 H   0  0  0  0  0  0  0  0  0  0  0  0
   14.9944   -2.9213   -4.3306 H   0  0  0  0  0  0  0  0  0  0  0  0
   14.0130   -3.2088   -2.9730 H   0  0  0  0  0  0  0  0  0  0  0  0
    9.3516   -4.0482   -2.4177 H   0  0  0  0  0  0  0  0  0  0  0  0
    4.9734   -4.0370   -2.4634 H   0  0  0  0  0  0  0  0  0  0  0  0
  1  2  1  0  0  0  0
  1 40  1  0  0  0  0
  1 41  1  0  0  0  0
  1 42  1  0  0  0  0
  2  3  1  0  0  0  0
  3  4  1  0  0  0  0
  3 39  2  0  0  0  0
  4  5  2  0  0  0  0
  4 43  1  0  0  0  0
  5  6  1  0  0  0  0
  5 44  1  0  0  0  0
  6  7  2  0  0  0  0
  6 45  1  0  0  0  0
  7  8  1  0  0  0  0
  7 39  1  0  0  0  0
  8  9  2  0  0  0  0
  8 10  1  0  0  0  0
 10 11  1  0  0  0  0
 10 46  1  0  0  0  0
 11 12  1  0  0  0  0
 11 38  2  0  0  0  0
 12 13  2  0  0  0  0
 12 47  1  0  0  0  0
 13 14  1  0  0  0  0
 13 48  1  0  0  0  0
 14 15  2  0  0  0  0
 14 49  1  0  0  0  0
 15 16  1  0  0  0  0
 15 38  1  0  0  0  0
 16 17  3  0  0  0  0
 17 18  1  0  0  0  0
 18 19  1  0  0  0  0
 18 36  2  0  0  0  0
 19 20  2  0  0  0  0
 19 50  1  0  0  0  0
 20 21  1  0  0  0  0
 20 34  1  0  0  0  0
 21 22  2  0  0  0  0
 21 23  1  0  0  0  0
 23 24  2  0  0  0  0
 24 25  2  0  0  0  0
 24 26  1  0  0  0  0
 24 30  1  0  0  0  0
 26 27  1  0  0  0  0
 26 51  1  0  0  0  0
 26 52  1  0  0  0  0
 27 28  1  0  0  0  0
 27 53  1  0  0  0  0
 27 54  1  0  0  0  0
 28 29  1  0  0  0  0
 28 55  1  0  0  0  0
 28 56  1  0  0  0  0
 29 57  1  0  0  0  0
 30 31  1  0  0  0  0
 30 58  1  0  0  0  0
 30 59  1  0  0  0  0
 31 32  1  0  0  0  0
 31 60  1  0  0  0  0
 31 61  1  0  0  0  0
 32 33  1  0  0  0  0
 32 62  1  0  0  0  0
 32 63  1  0  0  0  0
 33 64  1  0  0  0  0
 34 35  2  0  0  0  0
 34 65  1  0  0  0  0
 35 36  1  0  0  0  0
 36 37  1  0  0  0  0
 37 66  1  0  0  0  0
 37 67  1  0  0  0  0
 38 68  1  0  0  0  0
 39 69  1  0  0  0  0
M  END
$$$$
