CHEMBL237347
 OpenBabel04072215363D

 39 41  0  0  0  0  0  0  0  0999 V2000
   -1.4130    3.1317    0.2827 C   0  0  0  0  0  0  0  0  0  0  0  0
   -0.5619    2.4944    1.3461 C   0  0  0  0  0  0  0  0  0  0  0  0
   -1.1336    2.2975    2.6212 C   0  0  0  0  0  0  0  0  0  0  0  0
   -0.4193    1.6802    3.6495 C   0  0  0  0  0  0  0  0  0  0  0  0
    0.8668    1.2363    3.4013 C   0  0  0  0  0  0  0  0  0  0  0  0
    1.6025    0.5980    4.3529 O   0  0  0  0  0  0  0  0  0  0  0  0
    1.4542    1.4453    2.1613 C   0  0  0  0  0  0  0  0  0  0  0  0
    0.7772    2.1154    1.1244 C   0  0  0  0  0  0  0  0  0  0  0  0
    1.4736    2.4519   -0.0606 N   0  0  0  0  0  0  0  0  0  0  0  0
    2.8746    2.6379   -0.1988 C   0  0  0  0  0  0  0  0  0  0  0  0
    3.5786    3.3036    0.8100 C   0  0  0  0  0  0  0  0  0  0  0  0
    4.9550    3.3450    0.7529 C   0  0  0  0  0  0  0  0  0  0  0  0
    5.6772    2.7778   -0.2285 N   0  0  0  0  0  0  0  0  0  0  0  0
    5.0178    2.1464   -1.2111 C   0  0  0  0  0  0  0  0  0  0  0  0
    5.7792    1.5222   -2.1893 C   0  0  0  0  0  0  0  0  0  0  0  0
    5.1948    0.8118   -3.2373 C   0  0  0  0  0  0  0  0  0  0  0  0
    3.8073    0.7360   -3.3075 C   0  0  0  0  0  0  0  0  0  0  0  0
    3.0442   -0.1638   -4.6342 S   0  0  0  0  0  0  0  0  0  0  0  0
    2.7769   -1.7700   -3.9304 C   0  0  0  0  0  0  0  0  0  0  0  0
    1.7525    0.4476   -4.8824 O   0  0  0  0  0  0  0  0  0  0  0  0
    4.0232   -0.2946   -5.6961 O   0  0  0  0  0  0  0  0  0  0  0  0
    3.0101    1.3673   -2.3493 C   0  0  0  0  0  0  0  0  0  0  0  0
    3.6047    2.0623   -1.2697 C   0  0  0  0  0  0  0  0  0  0  0  0
   -2.4753    3.0890    0.5546 H   0  0  0  0  0  0  0  0  0  0  0  0
   -1.3177    2.5919   -0.6648 H   0  0  0  0  0  0  0  0  0  0  0  0
   -1.1382    4.1800    0.1429 H   0  0  0  0  0  0  0  0  0  0  0  0
   -2.1489    2.6333    2.8224 H   0  0  0  0  0  0  0  0  0  0  0  0
   -0.8833    1.5533    4.6230 H   0  0  0  0  0  0  0  0  0  0  0  0
    1.0590    0.4882    5.1469 H   0  0  0  0  0  0  0  0  0  0  0  0
    2.4687    1.0803    2.0092 H   0  0  0  0  0  0  0  0  0  0  0  0
    0.9201    2.7083   -0.8665 H   0  0  0  0  0  0  0  0  0  0  0  0
    3.0612    3.7641    1.6454 H   0  0  0  0  0  0  0  0  0  0  0  0
    5.5307    3.8316    1.5359 H   0  0  0  0  0  0  0  0  0  0  0  0
    6.8645    1.5758   -2.1207 H   0  0  0  0  0  0  0  0  0  0  0  0
    5.8285    0.3280   -3.9767 H   0  0  0  0  0  0  0  0  0  0  0  0
    2.1250   -1.6737   -3.0602 H   0  0  0  0  0  0  0  0  0  0  0  0
    3.7399   -2.2003   -3.6489 H   0  0  0  0  0  0  0  0  0  0  0  0
    2.2977   -2.3957   -4.6862 H   0  0  0  0  0  0  0  0  0  0  0  0
    1.9270    1.3078   -2.4309 H   0  0  0  0  0  0  0  0  0  0  0  0
  1  2  1  0  0  0  0
  1 24  1  0  0  0  0
  1 25  1  0  0  0  0
  1 26  1  0  0  0  0
  2  3  1  0  0  0  0
  2  8  2  0  0  0  0
  3  4  2  0  0  0  0
  3 27  1  0  0  0  0
  4  5  1  0  0  0  0
  4 28  1  0  0  0  0
  5  6  1  0  0  0  0
  5  7  2  0  0  0  0
  6 29  1  0  0  0  0
  7  8  1  0  0  0  0
  7 30  1  0  0  0  0
  8  9  1  0  0  0  0
  9 10  1  0  0  0  0
  9 31  1  0  0  0  0
 10 11  1  0  0  0  0
 10 23  2  0  0  0  0
 11 12  2  0  0  0  0
 11 32  1  0  0  0  0
 12 13  1  0  0  0  0
 12 33  1  0  0  0  0
 13 14  2  0  0  0  0
 14 15  1  0  0  0  0
 14 23  1  0  0  0  0
 15 16  2  0  0  0  0
 15 34  1  0  0  0  0
 16 17  1  0  0  0  0
 16 35  1  0  0  0  0
 17 18  1  0  0  0  0
 17 22  2  0  0  0  0
 18 19  1  0  0  0  0
 18 20  2  0  0  0  0
 18 21  2  0  0  0  0
 19 36  1  0  0  0  0
 19 37  1  0  0  0  0
 19 38  1  0  0  0  0
 22 23  1  0  0  0  0
 22 39  1  0  0  0  0
M  END
$$$$
