CHEMBL248980
 OpenBabel04072215363D

 45 47  0  0  0  0  0  0  0  0999 V2000
    0.4091    7.8215   -0.1517 C   0  0  0  0  0  0  0  0  0  0  0  0
    1.6365    7.8686   -1.0490 C   0  0  0  0  0  0  0  0  0  0  0  0
    2.5211    6.6588   -0.8824 C   0  0  0  0  0  0  0  0  0  0  0  0
    2.2833    5.5156   -1.6535 C   0  0  0  0  0  0  0  0  0  0  0  0
    3.1015    4.3987   -1.5214 C   0  0  0  0  0  0  0  0  0  0  0  0
    4.1659    4.4120   -0.6183 C   0  0  0  0  0  0  0  0  0  0  0  0
    4.4282    5.5386    0.1658 C   0  0  0  0  0  0  0  0  0  0  0  0
    5.5152    5.6272    1.0655 N   0  0  0  0  0  0  0  0  0  0  0  0
    6.4626    4.6493    1.3157 C   0  0  0  0  0  0  0  0  0  0  0  0
    6.4823    3.5186    0.8481 O   0  0  0  0  0  0  0  0  0  0  0  0
    7.5752    5.0166    2.2246 C   0  0  0  0  0  0  0  0  0  0  0  0
    8.8295    4.4591    1.9321 C   0  0  0  0  0  0  0  0  0  0  0  0
    9.9272    4.7776    2.7137 C   0  0  0  0  0  0  0  0  0  0  0  0
    9.7254    5.6426    3.7678 C   0  0  0  0  0  0  0  0  0  0  0  0
    8.5190    6.1612    4.0992 N   0  0  0  0  0  0  0  0  0  0  0  0
    7.4338    5.8299    3.3575 C   0  0  0  0  0  0  0  0  0  0  0  0
    6.1833    6.3857    3.7018 N   0  0  0  0  0  0  0  0  0  0  0  0
    6.0692    6.8688    5.0805 C   0  0  0  0  0  0  0  0  0  0  0  0
    5.4367    5.8156    5.9632 C   0  0  0  0  0  0  0  0  0  0  0  0
    6.2206    4.8651    6.6245 C   0  0  0  0  0  0  0  0  0  0  0  0
    5.5942    3.9420    7.4486 C   0  0  0  0  0  0  0  0  0  0  0  0
    4.2592    3.8937    7.6449 N   0  0  0  0  0  0  0  0  0  0  0  0
    3.5160    4.8001    6.9771 C   0  0  0  0  0  0  0  0  0  0  0  0
    4.0486    5.7612    6.1310 C   0  0  0  0  0  0  0  0  0  0  0  0
    3.5898    6.6571    0.0333 C   0  0  0  0  0  0  0  0  0  0  0  0
   -0.2408    8.6779   -0.3610 H   0  0  0  0  0  0  0  0  0  0  0  0
    0.6916    7.8616    0.9052 H   0  0  0  0  0  0  0  0  0  0  0  0
   -0.1727    6.9083   -0.3123 H   0  0  0  0  0  0  0  0  0  0  0  0
    2.2118    8.7794   -0.8449 H   0  0  0  0  0  0  0  0  0  0  0  0
    1.3196    7.9419   -2.0972 H   0  0  0  0  0  0  0  0  0  0  0  0
    1.4647    5.4905   -2.3692 H   0  0  0  0  0  0  0  0  0  0  0  0
    2.9247    3.5143   -2.1286 H   0  0  0  0  0  0  0  0  0  0  0  0
    4.7799    3.5201   -0.5646 H   0  0  0  0  0  0  0  0  0  0  0  0
    5.6446    6.5186    1.5394 H   0  0  0  0  0  0  0  0  0  0  0  0
    8.9446    3.7800    1.0882 H   0  0  0  0  0  0  0  0  0  0  0  0
   10.9074    4.3684    2.4996 H   0  0  0  0  0  0  0  0  0  0  0  0
   10.5532    5.9554    4.3985 H   0  0  0  0  0  0  0  0  0  0  0  0
    5.4510    5.6980    3.5230 H   0  0  0  0  0  0  0  0  0  0  0  0
    5.4149    7.7494    5.0729 H   0  0  0  0  0  0  0  0  0  0  0  0
    7.0061    7.2261    5.5251 H   0  0  0  0  0  0  0  0  0  0  0  0
    7.3001    4.8468    6.5093 H   0  0  0  0  0  0  0  0  0  0  0  0
    6.1672    3.1975    7.9943 H   0  0  0  0  0  0  0  0  0  0  0  0
    2.4452    4.7367    7.1496 H   0  0  0  0  0  0  0  0  0  0  0  0
    3.3894    6.4595    5.6260 H   0  0  0  0  0  0  0  0  0  0  0  0
    3.7669    7.5452    0.6360 H   0  0  0  0  0  0  0  0  0  0  0  0
  1  2  1  0  0  0  0
  1 26  1  0  0  0  0
  1 27  1  0  0  0  0
  1 28  1  0  0  0  0
  2  3  1  0  0  0  0
  2 29  1  0  0  0  0
  2 30  1  0  0  0  0
  3  4  1  0  0  0  0
  3 25  2  0  0  0  0
  4  5  2  0  0  0  0
  4 31  1  0  0  0  0
  5  6  1  0  0  0  0
  5 32  1  0  0  0  0
  6  7  2  0  0  0  0
  6 33  1  0  0  0  0
  7  8  1  0  0  0  0
  7 25  1  0  0  0  0
  8  9  1  0  0  0  0
  8 34  1  0  0  0  0
  9 10  2  0  0  0  0
  9 11  1  0  0  0  0
 11 12  1  0  0  0  0
 11 16  2  0  0  0  0
 12 13  2  0  0  0  0
 12 35  1  0  0  0  0
 13 14  1  0  0  0  0
 13 36  1  0  0  0  0
 14 15  2  0  0  0  0
 14 37  1  0  0  0  0
 15 16  1  0  0  0  0
 16 17  1  0  0  0  0
 17 18  1  0  0  0  0
 17 38  1  0  0  0  0
 18 19  1  0  0  0  0
 18 39  1  0  0  0  0
 18 40  1  0  0  0  0
 19 20  1  0  0  0  0
 19 24  2  0  0  0  0
 20 21  2  0  0  0  0
 20 41  1  0  0  0  0
 21 22  1  0  0  0  0
 21 42  1  0  0  0  0
 22 23  2  0  0  0  0
 23 24  1  0  0  0  0
 23 43  1  0  0  0  0
 24 44  1  0  0  0  0
 25 45  1  0  0  0  0
M  END
$$$$
