CHEMBL372388
 OpenBabel04072215373D

 64 68  0  0  0  0  0  0  0  0999 V2000
    2.3791   -0.0440   -0.6512 C   0  0  0  0  0  0  0  0  0  0  0  0
    0.8801    0.0466   -0.7107 C   0  0  0  0  0  0  0  0  0  0  0  0
    0.2702    1.2714   -0.9774 C   0  0  0  0  0  0  0  0  0  0  0  0
   -1.1152    1.3641   -1.0306 C   0  0  0  0  0  0  0  0  0  0  0  0
   -1.8917    0.2253   -0.8152 C   0  0  0  0  0  0  0  0  0  0  0  0
   -1.3129   -1.0218   -0.5528 C   0  0  0  0  0  0  0  0  0  0  0  0
   -2.0711   -2.1995   -0.3230 N   0  0  0  0  0  0  0  0  0  0  0  0
   -3.4432   -2.3056   -0.4643 C   0  0  0  0  0  0  0  0  0  0  0  0
   -4.1665   -1.4106   -0.8926 O   0  0  0  0  0  0  0  0  0  0  0  0
   -3.9414   -3.5326   -0.0352 N   0  0  0  0  0  0  0  0  0  0  0  0
   -5.3329   -3.7975   -0.1318 C   0  0  0  0  0  0  0  0  0  0  0  0
   -6.0651   -3.3691   -1.2377 C   0  0  0  0  0  0  0  0  0  0  0  0
   -7.4596   -3.4111   -1.2310 C   0  0  0  0  0  0  0  0  0  0  0  0
   -8.1682   -3.9805   -0.1693 C   0  0  0  0  0  0  0  0  0  0  0  0
   -9.6518   -3.9587   -0.1411 C   0  0  0  0  0  0  0  0  0  0  0  0
  -10.4233   -4.2010   -1.2882 C   0  0  0  0  0  0  0  0  0  0  0  0
  -10.0565   -4.5126   -2.7258 C   0  0  0  0  0  0  0  0  0  0  0  0
   -9.1378   -5.6465   -2.8445 N   0  0  0  0  0  0  0  0  0  0  0  0
   -9.7685   -6.9111   -2.4276 C   0  0  0  0  0  0  0  0  0  0  0  0
   -8.8054   -8.1070   -2.5851 C   0  0  0  0  0  0  0  0  0  0  0  0
   -8.2498   -8.2753   -3.9427 N   0  0  0  0  0  0  0  0  0  0  0  0
   -9.2590   -8.7710   -4.8752 C   0  0  0  0  0  0  0  0  0  0  0  0
   -7.6813   -6.9864   -4.3882 C   0  0  0  0  0  0  0  0  0  0  0  0
   -8.6165   -5.7646   -4.2182 C   0  0  0  0  0  0  0  0  0  0  0  0
  -12.1058   -4.1288   -0.9582 S   0  0  0  0  0  0  0  0  0  0  0  0
  -11.8523   -3.7616    0.6687 C   0  0  0  0  0  0  0  0  0  0  0  0
  -12.9221   -3.5751    1.4586 N   0  0  0  0  0  0  0  0  0  0  0  0
  -12.5874   -3.2741    2.7080 C   0  0  0  0  0  0  0  0  0  0  0  0
  -11.3518   -3.1462    3.2004 N   0  0  0  0  0  0  0  0  0  0  0  0
  -10.3001   -3.3324    2.3787 C   0  0  0  0  0  0  0  0  0  0  0  0
   -9.0659   -3.1334    2.9849 N   0  0  0  0  0  0  0  0  0  0  0  0
  -10.5128   -3.6736    1.0213 C   0  0  0  0  0  0  0  0  0  0  0  0
   -7.4124   -4.5357    0.8760 C   0  0  0  0  0  0  0  0  0  0  0  0
   -6.0081   -4.4239    0.9128 C   0  0  0  0  0  0  0  0  0  0  0  0
    0.0856   -1.1001   -0.5015 C   0  0  0  0  0  0  0  0  0  0  0  0
    2.8417    0.9365   -0.8092 H   0  0  0  0  0  0  0  0  0  0  0  0
    2.7513   -0.7171   -1.4302 H   0  0  0  0  0  0  0  0  0  0  0  0
    2.6996   -0.4066    0.3307 H   0  0  0  0  0  0  0  0  0  0  0  0
    0.8655    2.1709   -1.1460 H   0  0  0  0  0  0  0  0  0  0  0  0
   -1.5961    2.3137   -1.2369 H   0  0  0  0  0  0  0  0  0  0  0  0
   -2.9673    0.3670   -0.8599 H   0  0  0  0  0  0  0  0  0  0  0  0
   -1.5615   -3.0591   -0.1789 H   0  0  0  0  0  0  0  0  0  0  0  0
   -3.4509   -3.9513    0.7410 H   0  0  0  0  0  0  0  0  0  0  0  0
   -5.5649   -2.9415   -2.1044 H   0  0  0  0  0  0  0  0  0  0  0  0
   -7.9619   -2.9609   -2.0782 H   0  0  0  0  0  0  0  0  0  0  0  0
   -9.6144   -3.6074   -3.1596 H   0  0  0  0  0  0  0  0  0  0  0  0
  -10.9538   -4.6983   -3.3322 H   0  0  0  0  0  0  0  0  0  0  0  0
  -10.6867   -7.0926   -3.0009 H   0  0  0  0  0  0  0  0  0  0  0  0
  -10.0553   -6.8615   -1.3710 H   0  0  0  0  0  0  0  0  0  0  0  0
   -9.3091   -9.0270   -2.2649 H   0  0  0  0  0  0  0  0  0  0  0  0
   -7.9671   -7.9725   -1.8879 H   0  0  0  0  0  0  0  0  0  0  0  0
   -9.6616   -9.7289   -4.5270 H   0  0  0  0  0  0  0  0  0  0  0  0
   -8.8073   -8.9602   -5.8551 H   0  0  0  0  0  0  0  0  0  0  0  0
  -10.0988   -8.0836   -5.0172 H   0  0  0  0  0  0  0  0  0  0  0  0
   -7.3570   -7.0587   -5.4337 H   0  0  0  0  0  0  0  0  0  0  0  0
   -6.7662   -6.8042   -3.8086 H   0  0  0  0  0  0  0  0  0  0  0  0
   -9.4406   -5.8316   -4.9402 H   0  0  0  0  0  0  0  0  0  0  0  0
   -8.0430   -4.8635   -4.4694 H   0  0  0  0  0  0  0  0  0  0  0  0
  -13.4054   -3.1044    3.4005 H   0  0  0  0  0  0  0  0  0  0  0  0
   -9.2026   -2.6880    3.8864 H   0  0  0  0  0  0  0  0  0  0  0  0
   -8.3861   -2.6845    2.3836 H   0  0  0  0  0  0  0  0  0  0  0  0
   -7.9063   -5.0211    1.7162 H   0  0  0  0  0  0  0  0  0  0  0  0
   -5.4763   -4.7631    1.7977 H   0  0  0  0  0  0  0  0  0  0  0  0
    0.5730   -2.0503   -0.2964 H   0  0  0  0  0  0  0  0  0  0  0  0
  1  2  1  0  0  0  0
  1 36  1  0  0  0  0
  1 37  1  0  0  0  0
  1 38  1  0  0  0  0
  2  3  1  0  0  0  0
  2 35  2  0  0  0  0
  3  4  2  0  0  0  0
  3 39  1  0  0  0  0
  4  5  1  0  0  0  0
  4 40  1  0  0  0  0
  5  6  2  0  0  0  0
  5 41  1  0  0  0  0
  6  7  1  0  0  0  0
  6 35  1  0  0  0  0
  7  8  1  0  0  0  0
  7 42  1  0  0  0  0
  8  9  2  0  0  0  0
  8 10  1  0  0  0  0
 10 11  1  0  0  0  0
 10 43  1  0  0  0  0
 11 12  1  0  0  0  0
 11 34  2  0  0  0  0
 12 13  2  0  0  0  0
 12 44  1  0  0  0  0
 13 14  1  0  0  0  0
 13 45  1  0  0  0  0
 14 15  1  0  0  0  0
 14 33  2  0  0  0  0
 15 16  2  0  0  0  0
 15 32  1  0  0  0  0
 16 17  1  0  0  0  0
 16 25  1  0  0  0  0
 17 18  1  0  0  0  0
 17 46  1  0  0  0  0
 17 47  1  0  0  0  0
 18 19  1  0  0  0  0
 18 24  1  0  0  0  0
 19 20  1  0  0  0  0
 19 48  1  0  0  0  0
 19 49  1  0  0  0  0
 20 21  1  0  0  0  0
 20 50  1  0  0  0  0
 20 51  1  0  0  0  0
 21 22  1  0  0  0  0
 21 23  1  0  0  0  0
 22 52  1  0  0  0  0
 22 53  1  0  0  0  0
 22 54  1  0  0  0  0
 23 24  1  0  0  0  0
 23 55  1  0  0  0  0
 23 56  1  0  0  0  0
 24 57  1  0  0  0  0
 24 58  1  0  0  0  0
 25 26  1  0  0  0  0
 26 27  1  0  0  0  0
 26 32  2  0  0  0  0
 27 28  2  0  0  0  0
 28 29  1  0  0  0  0
 28 59  1  0  0  0  0
 29 30  2  0  0  0  0
 30 31  1  0  0  0  0
 30 32  1  0  0  0  0
 31 60  1  0  0  0  0
 31 61  1  0  0  0  0
 33 34  1  0  0  0  0
 33 62  1  0  0  0  0
 34 63  1  0  0  0  0
 35 64  1  0  0  0  0
M  END
$$$$
