CHEMBL2006933
 OpenBabel04072215363D

 27 29  0  0  0  0  0  0  0  0999 V2000
    2.1052   -0.8415    1.2839 C   0  0  0  0  0  0  0  0  0  0  0  0
    2.9108    0.0609   -0.0673 S   0  0  0  0  0  0  0  0  0  0  0  0
    3.4016    1.5475    0.7903 C   0  0  0  0  0  0  0  0  0  0  0  0
    2.9284    2.7669    0.3449 C   0  0  0  0  0  0  0  0  0  0  0  0
    3.2529    3.9630    0.8914 N   0  0  0  0  0  0  0  0  0  0  0  0
    4.1087    4.0040    1.9366 C   0  0  0  0  0  0  0  0  0  0  0  0
    4.6747    2.8192    2.4666 C   0  0  0  0  0  0  0  0  0  0  0  0
    5.5683    2.9190    3.5598 C   0  0  0  0  0  0  0  0  0  0  0  0
    5.9018    4.1511    4.1148 C   0  0  0  0  0  0  0  0  0  0  0  0
    5.3439    5.3193    3.5988 C   0  0  0  0  0  0  0  0  0  0  0  0
    5.6450    6.5754    4.1308 C   0  0  0  0  0  0  0  0  0  0  0  0
    5.1357    7.7424    3.6800 N   0  0  0  0  0  0  0  0  0  0  0  0
    4.2825    7.6588    2.6414 C   0  0  0  0  0  0  0  0  0  0  0  0
    3.9182    6.4651    2.0385 C   0  0  0  0  0  0  0  0  0  0  0  0
    4.4483    5.2509    2.5108 C   0  0  0  0  0  0  0  0  0  0  0  0
    4.2991    1.5896    1.8613 C   0  0  0  0  0  0  0  0  0  0  0  0
    4.8082    0.3860    2.2941 O   0  0  0  0  0  0  0  0  0  0  0  0
    1.8002   -1.8254    0.9167 H   0  0  0  0  0  0  0  0  0  0  0  0
    1.2133   -0.3045    1.6175 H   0  0  0  0  0  0  0  0  0  0  0  0
    2.7716   -0.9959    2.1346 H   0  0  0  0  0  0  0  0  0  0  0  0
    2.2459    2.8320   -0.4991 H   0  0  0  0  0  0  0  0  0  0  0  0
    6.0220    2.0421    4.0111 H   0  0  0  0  0  0  0  0  0  0  0  0
    6.5948    4.1882    4.9532 H   0  0  0  0  0  0  0  0  0  0  0  0
    6.3290    6.6838    4.9699 H   0  0  0  0  0  0  0  0  0  0  0  0
    3.8811    8.6055    2.2907 H   0  0  0  0  0  0  0  0  0  0  0  0
    3.2224    6.4809    1.2037 H   0  0  0  0  0  0  0  0  0  0  0  0
    5.5594    0.5203    2.8875 H   0  0  0  0  0  0  0  0  0  0  0  0
  1  2  1  0  0  0  0
  1 18  1  0  0  0  0
  1 19  1  0  0  0  0
  1 20  1  0  0  0  0
  2  3  1  0  0  0  0
  3  4  1  0  0  0  0
  3 16  2  0  0  0  0
  4  5  2  0  0  0  0
  4 21  1  0  0  0  0
  5  6  1  0  0  0  0
  6  7  1  0  0  0  0
  6 15  2  0  0  0  0
  7  8  2  0  0  0  0
  7 16  1  0  0  0  0
  8  9  1  0  0  0  0
  8 22  1  0  0  0  0
  9 10  2  0  0  0  0
  9 23  1  0  0  0  0
 10 11  1  0  0  0  0
 10 15  1  0  0  0  0
 11 12  2  0  0  0  0
 11 24  1  0  0  0  0
 12 13  1  0  0  0  0
 13 14  2  0  0  0  0
 13 25  1  0  0  0  0
 14 15  1  0  0  0  0
 14 26  1  0  0  0  0
 16 17  1  0  0  0  0
 17 27  1  0  0  0  0
M  END
$$$$
