CHEMBL3690554
 OpenBabel04072215373D

 50 53  0  0  0  0  0  0  0  0999 V2000
    0.8855   -0.8253    0.5916 C   0  0  0  0  0  0  0  0  0  0  0  0
    1.6651   -0.2737   -0.4641 O   0  0  0  0  0  0  0  0  0  0  0  0
    2.4689   -1.1593   -1.1187 C   0  0  0  0  0  0  0  0  0  0  0  0
    2.2740   -2.5326   -1.1927 C   0  0  0  0  0  0  0  0  0  0  0  0
    3.1584   -3.3160   -1.9334 C   0  0  0  0  0  0  0  0  0  0  0  0
    4.2251   -2.7066   -2.5893 C   0  0  0  0  0  0  0  0  0  0  0  0
    5.1385   -3.4488   -3.4959 C   0  0  0  0  0  0  0  0  0  0  0  0
    5.7793   -2.7608   -4.6263 C   0  0  0  0  0  0  0  0  0  0  0  0
    6.5829   -3.4325   -5.4622 C   0  0  0  0  0  0  0  0  0  0  0  0
    6.8360   -4.7829   -5.2340 N   0  0  0  0  0  0  0  0  0  0  0  0
    7.6777   -5.6706   -5.8866 C   0  0  0  0  0  0  0  0  0  0  0  0
    8.6469   -5.3467   -6.9361 C   0  0  0  0  0  0  0  0  0  0  0  0
    8.8613   -6.2583   -7.9771 C   0  0  0  0  0  0  0  0  0  0  0  0
    9.8381   -6.0129   -8.9365 C   0  0  0  0  0  0  0  0  0  0  0  0
   10.5707   -4.8278   -8.8974 C   0  0  0  0  0  0  0  0  0  0  0  0
   10.3307   -3.8682   -7.9121 C   0  0  0  0  0  0  0  0  0  0  0  0
   10.9824   -2.6125   -7.8937 N   0  0  0  0  0  0  0  0  0  0  0  0
   11.6493   -2.0556   -8.9611 C   0  0  0  0  0  0  0  0  0  0  0  0
   11.7307   -2.5144  -10.0947 O   0  0  0  0  0  0  0  0  0  0  0  0
   12.3032   -0.8896   -8.6352 N   0  0  0  0  0  0  0  0  0  0  0  0
   13.0455   -0.1941   -9.6944 C   0  0  0  0  0  0  0  0  0  0  0  0
   12.2046    0.6302  -10.6814 C   0  0  0  0  0  0  0  0  0  0  0  0
   10.9147    0.7378  -10.2871 F   0  0  0  0  0  0  0  0  0  0  0  0
   12.6953    1.8937  -10.7568 F   0  0  0  0  0  0  0  0  0  0  0  0
   12.2244    0.1200  -11.9297 F   0  0  0  0  0  0  0  0  0  0  0  0
    9.4107   -4.1637   -6.9008 C   0  0  0  0  0  0  0  0  0  0  0  0
    7.3922   -6.8934   -5.2967 C   0  0  0  0  0  0  0  0  0  0  0  0
    6.5109   -6.7725   -4.2568 N   0  0  0  0  0  0  0  0  0  0  0  0
    6.2213   -5.4916   -4.2070 C   0  0  0  0  0  0  0  0  0  0  0  0
    5.3842   -4.7686   -3.3102 C   0  0  0  0  0  0  0  0  0  0  0  0
    4.4292   -1.3672   -2.5284 N   0  0  0  0  0  0  0  0  0  0  0  0
    3.5517   -0.6317   -1.8062 C   0  0  0  0  0  0  0  0  0  0  0  0
    0.3699   -0.0019    1.0934 H   0  0  0  0  0  0  0  0  0  0  0  0
    1.5273   -1.3224    1.3272 H   0  0  0  0  0  0  0  0  0  0  0  0
    0.1207   -1.5094    0.2102 H   0  0  0  0  0  0  0  0  0  0  0  0
    1.4296   -3.0219   -0.7207 H   0  0  0  0  0  0  0  0  0  0  0  0
    2.9718   -4.3807   -2.0191 H   0  0  0  0  0  0  0  0  0  0  0  0
    5.5799   -1.7027   -4.7697 H   0  0  0  0  0  0  0  0  0  0  0  0
    7.0391   -2.9585   -6.3193 H   0  0  0  0  0  0  0  0  0  0  0  0
    8.2791   -7.1744   -8.0479 H   0  0  0  0  0  0  0  0  0  0  0  0
   10.0330   -6.7397   -9.7206 H   0  0  0  0  0  0  0  0  0  0  0  0
   11.3431   -4.6890   -9.6476 H   0  0  0  0  0  0  0  0  0  0  0  0
   10.8125   -2.0178   -7.0942 H   0  0  0  0  0  0  0  0  0  0  0  0
   11.9224   -0.3309   -7.8859 H   0  0  0  0  0  0  0  0  0  0  0  0
   13.6225   -0.9386  -10.2570 H   0  0  0  0  0  0  0  0  0  0  0  0
   13.7666    0.4549   -9.1889 H   0  0  0  0  0  0  0  0  0  0  0  0
    9.2795   -3.4616   -6.0818 H   0  0  0  0  0  0  0  0  0  0  0  0
    7.8188   -7.8569   -5.5471 H   0  0  0  0  0  0  0  0  0  0  0  0
    4.9676   -5.3394   -2.4892 H   0  0  0  0  0  0  0  0  0  0  0  0
    3.7442    0.4375   -1.7975 H   0  0  0  0  0  0  0  0  0  0  0  0
  1  2  1  0  0  0  0
  1 33  1  0  0  0  0
  1 34  1  0  0  0  0
  1 35  1  0  0  0  0
  2  3  1  0  0  0  0
  3  4  1  0  0  0  0
  3 32  2  0  0  0  0
  4  5  2  0  0  0  0
  4 36  1  0  0  0  0
  5  6  1  0  0  0  0
  5 37  1  0  0  0  0
  6  7  1  0  0  0  0
  6 31  2  0  0  0  0
  7  8  1  0  0  0  0
  7 30  2  0  0  0  0
  8  9  2  0  0  0  0
  8 38  1  0  0  0  0
  9 10  1  0  0  0  0
  9 39  1  0  0  0  0
 10 11  1  0  0  0  0
 10 29  1  0  0  0  0
 11 12  1  0  0  0  0
 11 27  2  0  0  0  0
 12 13  1  0  0  0  0
 12 26  2  0  0  0  0
 13 14  2  0  0  0  0
 13 40  1  0  0  0  0
 14 15  1  0  0  0  0
 14 41  1  0  0  0  0
 15 16  2  0  0  0  0
 15 42  1  0  0  0  0
 16 17  1  0  0  0  0
 16 26  1  0  0  0  0
 17 18  1  0  0  0  0
 17 43  1  0  0  0  0
 18 19  2  0  0  0  0
 18 20  1  0  0  0  0
 20 21  1  0  0  0  0
 20 44  1  0  0  0  0
 21 22  1  0  0  0  0
 21 45  1  0  0  0  0
 21 46  1  0  0  0  0
 22 23  1  0  0  0  0
 22 24  1  0  0  0  0
 22 25  1  0  0  0  0
 26 47  1  0  0  0  0
 27 28  1  0  0  0  0
 27 48  1  0  0  0  0
 28 29  2  0  0  0  0
 29 30  1  0  0  0  0
 30 49  1  0  0  0  0
 31 32  1  0  0  0  0
 32 50  1  0  0  0  0
M  END
$$$$
