CHEMBL1241948
 OpenBabel04072215363D

 42 44  0  0  0  0  0  0  0  0999 V2000
    2.8651   -0.0699    1.5152 C   0  0  0  0  0  0  0  0  0  0  0  0
    2.6085    0.0881    0.0159 C   0  0  0  0  0  0  0  0  0  0  0  0
    1.1431   -0.1983   -0.3170 C   0  0  0  0  0  0  0  0  0  0  0  0
    3.0171    1.4061   -0.4628 N   0  0  0  0  0  0  0  0  0  0  0  0
    2.4254    2.5162    0.0340 N   0  0  0  0  0  0  0  0  0  0  0  0
    2.9813    3.5296   -0.6557 C   0  0  0  0  0  0  0  0  0  0  0  0
    2.5279    4.9022   -0.4136 C   0  0  0  0  0  0  0  0  0  0  0  0
    2.4033    5.8219   -1.4627 C   0  0  0  0  0  0  0  0  0  0  0  0
    1.9868    7.1318   -1.2173 C   0  0  0  0  0  0  0  0  0  0  0  0
    1.6401    7.5213    0.0743 C   0  0  0  0  0  0  0  0  0  0  0  0
    1.7414    6.6103    1.1229 C   0  0  0  0  0  0  0  0  0  0  0  0
    1.3791    7.0097    2.4365 N   0  0  0  0  0  0  0  0  0  0  0  0
   -0.2306    6.9475    2.9091 S   0  0  0  0  0  0  0  0  0  0  0  0
   -0.6108    5.2043    2.8460 C   0  0  0  0  0  0  0  0  0  0  0  0
   -0.2433    7.3393    4.3021 O   0  0  0  0  0  0  0  0  0  0  0  0
   -1.0445    7.6352    1.9294 O   0  0  0  0  0  0  0  0  0  0  0  0
    2.1837    5.3080    0.8856 C   0  0  0  0  0  0  0  0  0  0  0  0
    3.9895    3.0554   -1.5528 C   0  0  0  0  0  0  0  0  0  0  0  0
    4.9174    3.5708   -2.4717 C   0  0  0  0  0  0  0  0  0  0  0  0
    5.1120    4.9166   -2.7493 N   0  0  0  0  0  0  0  0  0  0  0  0
    5.7079    2.7097   -3.1462 N   0  0  0  0  0  0  0  0  0  0  0  0
    5.5825    1.3946   -2.9069 C   0  0  0  0  0  0  0  0  0  0  0  0
    4.7481    0.7855   -2.0496 N   0  0  0  0  0  0  0  0  0  0  0  0
    3.9743    1.6770   -1.4013 C   0  0  0  0  0  0  0  0  0  0  0  0
    2.5699   -1.0683    1.8561 H   0  0  0  0  0  0  0  0  0  0  0  0
    2.3017    0.6639    2.1021 H   0  0  0  0  0  0  0  0  0  0  0  0
    3.9276    0.0640    1.7451 H   0  0  0  0  0  0  0  0  0  0  0  0
    3.2238   -0.6509   -0.5110 H   0  0  0  0  0  0  0  0  0  0  0  0
    0.4717    0.5351    0.1433 H   0  0  0  0  0  0  0  0  0  0  0  0
    0.8500   -1.1911    0.0419 H   0  0  0  0  0  0  0  0  0  0  0  0
    0.9759   -0.1693   -1.3992 H   0  0  0  0  0  0  0  0  0  0  0  0
    2.6175    5.5303   -2.4889 H   0  0  0  0  0  0  0  0  0  0  0  0
    1.9232    7.8425   -2.0374 H   0  0  0  0  0  0  0  0  0  0  0  0
    1.2946    8.5360    0.2594 H   0  0  0  0  0  0  0  0  0  0  0  0
    2.0347    6.8017    3.1927 H   0  0  0  0  0  0  0  0  0  0  0  0
    0.1047    4.6602    3.4657 H   0  0  0  0  0  0  0  0  0  0  0  0
   -0.5851    4.8601    1.8119 H   0  0  0  0  0  0  0  0  0  0  0  0
   -1.6187    5.0674    3.2478 H   0  0  0  0  0  0  0  0  0  0  0  0
    2.2532    4.5966    1.7043 H   0  0  0  0  0  0  0  0  0  0  0  0
    4.9924    5.5401   -1.9618 H   0  0  0  0  0  0  0  0  0  0  0  0
    5.9641    5.0491   -3.2831 H   0  0  0  0  0  0  0  0  0  0  0  0
    6.2440    0.7449   -3.4752 H   0  0  0  0  0  0  0  0  0  0  0  0
  1  2  1  0  0  0  0
  1 25  1  0  0  0  0
  1 26  1  0  0  0  0
  1 27  1  0  0  0  0
  2  3  1  0  0  0  0
  2  4  1  0  0  0  0
  2 28  1  0  0  0  0
  3 29  1  0  0  0  0
  3 30  1  0  0  0  0
  3 31  1  0  0  0  0
  4  5  1  0  0  0  0
  4 24  1  0  0  0  0
  5  6  2  0  0  0  0
  6  7  1  0  0  0  0
  6 18  1  0  0  0  0
  7  8  1  0  0  0  0
  7 17  2  0  0  0  0
  8  9  2  0  0  0  0
  8 32  1  0  0  0  0
  9 10  1  0  0  0  0
  9 33  1  0  0  0  0
 10 11  2  0  0  0  0
 10 34  1  0  0  0  0
 11 12  1  0  0  0  0
 11 17  1  0  0  0  0
 12 13  1  0  0  0  0
 12 35  1  0  0  0  0
 13 14  1  0  0  0  0
 13 15  2  0  0  0  0
 13 16  2  0  0  0  0
 14 36  1  0  0  0  0
 14 37  1  0  0  0  0
 14 38  1  0  0  0  0
 17 39  1  0  0  0  0
 18 19  1  0  0  0  0
 18 24  2  0  0  0  0
 19 20  1  0  0  0  0
 19 21  2  0  0  0  0
 20 40  1  0  0  0  0
 20 41  1  0  0  0  0
 21 22  1  0  0  0  0
 22 23  2  0  0  0  0
 22 42  1  0  0  0  0
 23 24  1  0  0  0  0
M  END
$$$$
