CHEMBL4173370
 OpenBabel04072215383D

 76 81  0  0  1  0  0  0  0  0999 V2000
    1.3864    0.9648    0.8379 C   0  0  0  0  0  0  0  0  0  0  0  0
    2.8050    0.8076    0.7609 O   0  0  0  0  0  0  0  0  0  0  0  0
    3.2377    0.4755   -0.4778 C   0  0  0  0  0  0  0  0  0  0  0  0
    2.5336    0.3284   -1.4662 O   0  0  0  0  0  0  0  0  0  0  0  0
    4.7116    0.2755   -0.4974 C   0  0  0  0  0  0  0  0  0  0  0  0
    5.5411    0.3986    0.6426 C   0  0  0  0  0  0  0  0  0  0  0  0
    6.9233    0.1141    0.5812 C   0  0  0  0  0  0  0  0  0  0  0  0
    7.4599   -0.3120   -0.6215 C   0  0  0  0  0  0  0  0  0  0  0  0
    6.6125   -0.3991   -1.7374 C   0  0  0  0  0  0  0  0  0  0  0  0
    5.2667   -0.1081   -1.7166 C   0  0  0  0  0  0  0  0  0  0  0  0
    7.2777   -0.9049   -2.8383 N   0  0  0  0  0  0  0  0  0  0  0  0
    8.5516   -1.2971   -2.4992 C   0  0  0  0  0  0  0  0  0  0  0  0
    9.2186   -2.0641   -3.1633 O   0  0  0  0  0  0  0  0  0  0  0  0
    8.7954   -0.7471   -1.1053 C   0  0  0  0  0  0  0  0  0  0  0  0
   10.0371   -0.7138   -0.5615 C   0  0  0  0  0  0  0  0  0  0  0  0
   11.2541   -0.9019   -1.2241 N   0  0  0  0  0  0  0  0  0  0  0  0
   11.5638   -0.5422   -2.5611 C   0  0  0  0  0  0  0  0  0  0  0  0
   10.9394    0.5773   -3.1596 C   0  0  0  0  0  0  0  0  0  0  0  0
   10.9905    0.7962   -4.5346 C   0  0  0  0  0  0  0  0  0  0  0  0
   11.6888   -0.1085   -5.3108 C   0  0  0  0  0  0  0  0  0  0  0  0
   12.3858   -1.1778   -4.7433 C   0  0  0  0  0  0  0  0  0  0  0  0
   12.3384   -1.4004   -3.3669 C   0  0  0  0  0  0  0  0  0  0  0  0
   13.0296   -1.9077   -5.7682 N   0  0  0  0  0  0  0  0  0  0  0  0
   13.8657   -2.9978   -5.6087 C   0  0  0  0  0  0  0  0  0  0  0  0
   14.1689   -3.4990   -4.5224 O   0  0  0  0  0  0  0  0  0  0  0  0
   14.4977   -3.5590   -6.8978 C   0  0  0  0  0  0  0  0  0  0  0  0
   13.6705   -4.6100   -7.5413 N   0  0  0  0  0  0  0  0  0  0  0  0
   13.5900   -5.8343   -6.7022 C   0  0  0  0  0  0  0  0  0  0  0  0
   14.9453   -6.5688   -6.5557 C   0  0  3  0  0  0  0  0  0  0  0  0
   14.7860   -7.8520   -5.7544 C   0  0  0  0  0  0  0  0  0  0  0  0
   15.4932   -6.9035   -7.8478 O   0  0  0  0  0  0  0  0  0  0  0  0
   15.6391   -5.7307   -8.6661 C   0  0  3  0  0  0  0  0  0  0  0  0
   16.2280   -6.1349  -10.0101 C   0  0  0  0  0  0  0  0  0  0  0  0
   14.2748   -5.0217   -8.8356 C   0  0  0  0  0  0  0  0  0  0  0  0
   12.5825   -1.3753   -7.0659 C   0  0  0  0  0  0  0  0  0  0  0  0
   11.8099   -0.0873   -6.7973 C   0  0  0  0  0  0  0  0  0  0  0  0
   10.1941   -0.5406    0.9058 C   0  0  0  0  0  0  0  0  0  0  0  0
   10.1746   -1.6792    1.7280 C   0  0  0  0  0  0  0  0  0  0  0  0
   10.3413   -1.5653    3.1107 C   0  0  0  0  0  0  0  0  0  0  0  0
   10.5274   -0.3114    3.6878 C   0  0  0  0  0  0  0  0  0  0  0  0
   10.5539    0.8275    2.8821 C   0  0  0  0  0  0  0  0  0  0  0  0
   10.3955    0.7149    1.4945 C   0  0  0  0  0  0  0  0  0  0  0  0
    1.1439    1.3915    1.8142 H   0  0  0  0  0  0  0  0  0  0  0  0
    0.8954   -0.0100    0.7499 H   0  0  0  0  0  0  0  0  0  0  0  0
    1.0220    1.6491    0.0641 H   0  0  0  0  0  0  0  0  0  0  0  0
    5.1128    0.6992    1.5974 H   0  0  0  0  0  0  0  0  0  0  0  0
    7.5268    0.2060    1.4781 H   0  0  0  0  0  0  0  0  0  0  0  0
    4.6592   -0.2163   -2.6093 H   0  0  0  0  0  0  0  0  0  0  0  0
    6.8537   -1.1934   -3.7058 H   0  0  0  0  0  0  0  0  0  0  0  0
   11.9575   -1.4422   -0.7326 H   0  0  0  0  0  0  0  0  0  0  0  0
   10.3542    1.2605   -2.5497 H   0  0  0  0  0  0  0  0  0  0  0  0
   10.4599    1.6285   -4.9832 H   0  0  0  0  0  0  0  0  0  0  0  0
   12.8161   -2.2734   -2.9338 H   0  0  0  0  0  0  0  0  0  0  0  0
   15.5017   -3.8995   -6.6271 H   0  0  0  0  0  0  0  0  0  0  0  0
   14.6745   -2.7489   -7.6098 H   0  0  0  0  0  0  0  0  0  0  0  0
   12.8705   -6.5117   -7.1842 H   0  0  0  0  0  0  0  0  0  0  0  0
   13.1603   -5.6043   -5.7216 H   0  0  0  0  0  0  0  0  0  0  0  0
   15.6712   -5.9407   -6.0271 H   0  0  0  0  0  0  0  0  0  0  0  0
   14.1460   -8.5694   -6.2775 H   0  0  0  0  0  0  0  0  0  0  0  0
   14.3592   -7.6489   -4.7670 H   0  0  0  0  0  0  0  0  0  0  0  0
   15.7600   -8.3338   -5.6173 H   0  0  0  0  0  0  0  0  0  0  0  0
   16.3664   -5.0639   -8.1897 H   0  0  0  0  0  0  0  0  0  0  0  0
   15.6045   -6.8790  -10.5147 H   0  0  0  0  0  0  0  0  0  0  0  0
   17.2146   -6.5888   -9.8654 H   0  0  0  0  0  0  0  0  0  0  0  0
   16.3451   -5.2649  -10.6649 H   0  0  0  0  0  0  0  0  0  0  0  0
   13.5717   -5.7082   -9.3292 H   0  0  0  0  0  0  0  0  0  0  0  0
   14.3632   -4.1532   -9.4992 H   0  0  0  0  0  0  0  0  0  0  0  0
   11.9517   -2.1338   -7.5448 H   0  0  0  0  0  0  0  0  0  0  0  0
   13.4322   -1.1700   -7.7224 H   0  0  0  0  0  0  0  0  0  0  0  0
   10.8358   -0.1003   -7.2948 H   0  0  0  0  0  0  0  0  0  0  0  0
   12.3819    0.7868   -7.1231 H   0  0  0  0  0  0  0  0  0  0  0  0
   10.0405   -2.6660    1.2892 H   0  0  0  0  0  0  0  0  0  0  0  0
   10.3353   -2.4570    3.7331 H   0  0  0  0  0  0  0  0  0  0  0  0
   10.6618   -0.2235    4.7637 H   0  0  0  0  0  0  0  0  0  0  0  0
   10.7077    1.8035    3.3365 H   0  0  0  0  0  0  0  0  0  0  0  0
   10.4318    1.6108    0.8798 H   0  0  0  0  0  0  0  0  0  0  0  0
  1  2  1  0  0  0  0
  1 43  1  0  0  0  0
  1 44  1  0  0  0  0
  1 45  1  0  0  0  0
  2  3  1  0  0  0  0
  3  4  2  0  0  0  0
  3  5  1  0  0  0  0
  5  6  1  0  0  0  0
  5 10  2  0  0  0  0
  6  7  2  0  0  0  0
  6 46  1  0  0  0  0
  7  8  1  0  0  0  0
  7 47  1  0  0  0  0
  8  9  2  0  0  0  0
  8 14  1  0  0  0  0
  9 10  1  0  0  0  0
  9 11  1  0  0  0  0
 10 48  1  0  0  0  0
 11 12  1  0  0  0  0
 11 49  1  0  0  0  0
 12 13  2  0  0  0  0
 12 14  1  0  0  0  0
 14 15  2  0  0  0  0
 15 16  1  0  0  0  0
 15 37  1  0  0  0  0
 16 17  1  0  0  0  0
 16 50  1  0  0  0  0
 17 18  1  0  0  0  0
 17 22  2  0  0  0  0
 18 19  2  0  0  0  0
 18 51  1  0  0  0  0
 19 20  1  0  0  0  0
 19 52  1  0  0  0  0
 20 21  2  0  0  0  0
 20 36  1  0  0  0  0
 21 22  1  0  0  0  0
 21 23  1  0  0  0  0
 22 53  1  0  0  0  0
 23 24  1  0  0  0  0
 23 35  1  0  0  0  0
 24 25  2  0  0  0  0
 24 26  1  0  0  0  0
 26 27  1  0  0  0  0
 26 54  1  0  0  0  0
 26 55  1  0  0  0  0
 27 28  1  0  0  0  0
 27 34  1  0  0  0  0
 28 29  1  0  0  0  0
 28 56  1  0  0  0  0
 28 57  1  0  0  0  0
 29 30  1  0  0  0  0
 29 31  1  0  0  0  0
 29 58  1  0  0  0  0
 30 59  1  0  0  0  0
 30 60  1  0  0  0  0
 30 61  1  0  0  0  0
 31 32  1  0  0  0  0
 32 33  1  0  0  0  0
 32 34  1  0  0  0  0
 32 62  1  0  0  0  0
 33 63  1  0  0  0  0
 33 64  1  0  0  0  0
 33 65  1  0  0  0  0
 34 66  1  0  0  0  0
 34 67  1  0  0  0  0
 35 36  1  0  0  0  0
 35 68  1  0  0  0  0
 35 69  1  0  0  0  0
 36 70  1  0  0  0  0
 36 71  1  0  0  0  0
 37 38  1  0  0  0  0
 37 42  2  0  0  0  0
 38 39  2  0  0  0  0
 38 72  1  0  0  0  0
 39 40  1  0  0  0  0
 39 73  1  0  0  0  0
 40 41  2  0  0  0  0
 40 74  1  0  0  0  0
 41 42  1  0  0  0  0
 41 75  1  0  0  0  0
 42 76  1  0  0  0  0
M  END
$$$$
