CHEMBL2349006
 OpenBabel04072215363D

 50 54  0  0  0  0  0  0  0  0999 V2000
    1.1749    0.1508    0.6464 O   0  0  0  0  0  0  0  0  0  0  0  0
    2.3048    0.0761    0.1759 C   0  0  0  0  0  0  0  0  0  0  0  0
    2.8746    0.9271   -0.7652 N   0  0  0  0  0  0  0  0  0  0  0  0
    2.2418    2.0661   -1.3234 C   0  0  0  0  0  0  0  0  0  0  0  0
    1.1162    2.6481   -0.7320 C   0  0  0  0  0  0  0  0  0  0  0  0
    0.4424    3.7001   -1.3506 C   0  0  0  0  0  0  0  0  0  0  0  0
    0.8952    4.1948   -2.5661 C   0  0  0  0  0  0  0  0  0  0  0  0
    2.0598    3.6766   -3.1298 C   0  0  0  0  0  0  0  0  0  0  0  0
    2.4960    4.1103   -4.4083 O   0  0  0  0  0  0  0  0  0  0  0  0
    2.3727    5.4482   -4.7894 C   0  0  0  0  0  0  0  0  0  0  0  0
    2.3773    5.5222   -6.2707 C   0  0  0  0  0  0  0  0  0  0  0  0
    2.2694    6.7448   -6.8101 C   0  0  0  0  0  0  0  0  0  0  0  0
    2.1587    7.8654   -5.9576 C   0  0  0  0  0  0  0  0  0  0  0  0
    2.0358    9.1440   -6.2250 N   0  0  0  0  0  0  0  0  0  0  0  0
    1.9411    9.7688   -5.0161 C   0  0  0  0  0  0  0  0  0  0  0  0
    1.7952   11.1316   -4.8743 N   0  0  0  0  0  0  0  0  0  0  0  0
    1.7540   12.0054   -5.9373 C   0  0  0  0  0  0  0  0  0  0  0  0
    1.8561   11.7410   -7.1288 O   0  0  0  0  0  0  0  0  0  0  0  0
    1.5902   13.4403   -5.5282 C   0  0  0  0  0  0  0  0  0  0  0  0
    1.2272   14.4831   -6.5640 C   0  0  0  0  0  0  0  0  0  0  0  0
    2.6095   14.4603   -5.9813 C   0  0  0  0  0  0  0  0  0  0  0  0
    2.0026    8.8557   -3.9878 C   0  0  0  0  0  0  0  0  0  0  0  0
    2.1567    7.6347   -4.5943 N   0  0  0  0  0  0  0  0  0  0  0  0
    2.2704    6.4349   -3.9563 N   0  0  0  0  0  0  0  0  0  0  0  0
    2.7400    2.6119   -2.5189 C   0  0  0  0  0  0  0  0  0  0  0  0
    3.1322   -1.0868    0.5848 C   0  0  0  0  0  0  0  0  0  0  0  0
    2.4832   -2.3012    0.8660 C   0  0  0  0  0  0  0  0  0  0  0  0
    3.2207   -3.4245    1.2433 C   0  0  0  0  0  0  0  0  0  0  0  0
    4.6061   -3.3311    1.3533 C   0  0  0  0  0  0  0  0  0  0  0  0
    5.2370   -2.1157    1.1023 C   0  0  0  0  0  0  0  0  0  0  0  0
    6.5675   -2.0282    1.2285 F   0  0  0  0  0  0  0  0  0  0  0  0
    4.5171   -0.9882    0.7237 C   0  0  0  0  0  0  0  0  0  0  0  0
    3.7287    0.6230   -1.2142 H   0  0  0  0  0  0  0  0  0  0  0  0
    0.7269    2.2970    0.2189 H   0  0  0  0  0  0  0  0  0  0  0  0
   -0.4486    4.1128   -0.8877 H   0  0  0  0  0  0  0  0  0  0  0  0
    0.3269    4.9766   -3.0589 H   0  0  0  0  0  0  0  0  0  0  0  0
    2.4286    4.6198   -6.8646 H   0  0  0  0  0  0  0  0  0  0  0  0
    2.2458    6.9080   -7.8821 H   0  0  0  0  0  0  0  0  0  0  0  0
    1.7293   11.4870   -3.9318 H   0  0  0  0  0  0  0  0  0  0  0  0
    1.1595   13.5929   -4.5422 H   0  0  0  0  0  0  0  0  0  0  0  0
    0.5640   15.2890   -6.2758 H   0  0  0  0  0  0  0  0  0  0  0  0
    1.1094   14.1659   -7.5962 H   0  0  0  0  0  0  0  0  0  0  0  0
    2.8826   15.2548   -5.2977 H   0  0  0  0  0  0  0  0  0  0  0  0
    3.4173   14.1281   -6.6255 H   0  0  0  0  0  0  0  0  0  0  0  0
    1.9559    8.9401   -2.9133 H   0  0  0  0  0  0  0  0  0  0  0  0
    3.6174    2.1932   -3.0013 H   0  0  0  0  0  0  0  0  0  0  0  0
    1.3985   -2.3715    0.7887 H   0  0  0  0  0  0  0  0  0  0  0  0
    2.7145   -4.3641    1.4517 H   0  0  0  0  0  0  0  0  0  0  0  0
    5.1977   -4.1942    1.6428 H   0  0  0  0  0  0  0  0  0  0  0  0
    5.0433   -0.0522    0.5739 H   0  0  0  0  0  0  0  0  0  0  0  0
  1  2  2  0  0  0  0
  2  3  1  0  0  0  0
  2 26  1  0  0  0  0
  3  4  1  0  0  0  0
  3 33  1  0  0  0  0
  4  5  1  0  0  0  0
  4 25  2  0  0  0  0
  5  6  2  0  0  0  0
  5 34  1  0  0  0  0
  6  7  1  0  0  0  0
  6 35  1  0  0  0  0
  7  8  2  0  0  0  0
  7 36  1  0  0  0  0
  8  9  1  0  0  0  0
  8 25  1  0  0  0  0
  9 10  1  0  0  0  0
 10 11  1  0  0  0  0
 10 24  2  0  0  0  0
 11 12  2  0  0  0  0
 11 37  1  0  0  0  0
 12 13  1  0  0  0  0
 12 38  1  0  0  0  0
 13 14  2  0  0  0  0
 13 23  1  0  0  0  0
 14 15  1  0  0  0  0
 15 16  1  0  0  0  0
 15 22  2  0  0  0  0
 16 17  1  0  0  0  0
 16 39  1  0  0  0  0
 17 18  2  0  0  0  0
 17 19  1  0  0  0  0
 19 20  1  0  0  0  0
 19 21  1  0  0  0  0
 19 40  1  0  0  0  0
 20 21  1  0  0  0  0
 20 41  1  0  0  0  0
 20 42  1  0  0  0  0
 21 43  1  0  0  0  0
 21 44  1  0  0  0  0
 22 23  1  0  0  0  0
 22 45  1  0  0  0  0
 23 24  1  0  0  0  0
 25 46  1  0  0  0  0
 26 27  1  0  0  0  0
 26 32  2  0  0  0  0
 27 28  2  0  0  0  0
 27 47  1  0  0  0  0
 28 29  1  0  0  0  0
 28 48  1  0  0  0  0
 29 30  2  0  0  0  0
 29 49  1  0  0  0  0
 30 31  1  0  0  0  0
 30 32  1  0  0  0  0
 32 50  1  0  0  0  0
M  END
$$$$
