CHEMBL3916485
 OpenBabel04072215373D

 51 55  0  0  0  0  0  0  0  0999 V2000
    3.2265    0.2982    1.1158 C   0  0  0  0  0  0  0  0  0  0  0  0
    2.4438    0.4875   -0.0693 O   0  0  0  0  0  0  0  0  0  0  0  0
    3.0957    0.2640   -1.2523 C   0  0  0  0  0  0  0  0  0  0  0  0
    4.1474   -0.6525   -1.3749 C   0  0  0  0  0  0  0  0  0  0  0  0
    4.8694   -0.7779   -2.5873 C   0  0  0  0  0  0  0  0  0  0  0  0
    5.9589   -1.6311   -2.8043 C   0  0  0  0  0  0  0  0  0  0  0  0
    6.3873   -2.4995   -1.7644 N   0  0  0  0  0  0  0  0  0  0  0  0
    7.6528   -3.1214   -1.7481 C   0  0  0  0  0  0  0  0  0  0  0  0
    8.8091   -2.3738   -2.0100 C   0  0  0  0  0  0  0  0  0  0  0  0
   10.0597   -2.9830   -2.0724 C   0  0  0  0  0  0  0  0  0  0  0  0
   10.1728   -4.3565   -1.8604 C   0  0  0  0  0  0  0  0  0  0  0  0
   11.7420   -5.0608   -2.0010 Cl  0  0  0  0  0  0  0  0  0  0  0  0
    9.0308   -5.1089   -1.5592 C   0  0  0  0  0  0  0  0  0  0  0  0
    9.0973   -6.8138   -1.2797 Cl  0  0  0  0  0  0  0  0  0  0  0  0
    7.7769   -4.4904   -1.4932 C   0  0  0  0  0  0  0  0  0  0  0  0
    6.6281   -1.6549   -3.9759 N   0  0  0  0  0  0  0  0  0  0  0  0
    6.2054   -0.8379   -4.9367 C   0  0  0  0  0  0  0  0  0  0  0  0
    5.1774    0.0064   -4.8418 N   0  0  0  0  0  0  0  0  0  0  0  0
    4.5304    0.0241   -3.6763 C   0  0  0  0  0  0  0  0  0  0  0  0
    3.4518    0.8769   -3.5586 C   0  0  0  0  0  0  0  0  0  0  0  0
    2.6817    0.9697   -2.3924 C   0  0  0  0  0  0  0  0  0  0  0  0
    1.5202    1.7268   -2.3300 O   0  0  0  0  0  0  0  0  0  0  0  0
    0.9906    2.0351   -3.6317 C   0  0  0  0  0  0  0  0  0  0  0  0
   -0.4326    2.4869   -3.5713 C   0  0  0  0  0  0  0  0  0  0  0  0
   -1.4357    1.7570   -4.0166 N   0  0  0  0  0  0  0  0  0  0  0  0
   -2.5812    2.5242   -4.1265 C   0  0  0  0  0  0  0  0  0  0  0  0
   -3.8132    1.9329   -4.6276 C   0  0  0  0  0  0  0  0  0  0  0  0
   -4.0465    0.5734   -4.4050 C   0  0  0  0  0  0  0  0  0  0  0  0
   -5.2256    0.0175   -4.8656 C   0  0  0  0  0  0  0  0  0  0  0  0
   -6.1675    0.7123   -5.5368 N   0  0  0  0  0  0  0  0  0  0  0  0
   -5.9109    2.0179   -5.7647 C   0  0  0  0  0  0  0  0  0  0  0  0
   -4.7631    2.6681   -5.3381 C   0  0  0  0  0  0  0  0  0  0  0  0
   -2.4394    3.8340   -3.7137 C   0  0  0  0  0  0  0  0  0  0  0  0
   -0.8309    4.1108   -3.1755 S   0  0  0  0  0  0  0  0  0  0  0  0
    2.9414    1.0644    1.8420 H   0  0  0  0  0  0  0  0  0  0  0  0
    4.3072    0.4039    0.9565 H   0  0  0  0  0  0  0  0  0  0  0  0
    3.0073   -0.6845    1.5457 H   0  0  0  0  0  0  0  0  0  0  0  0
    4.4320   -1.2702   -0.5282 H   0  0  0  0  0  0  0  0  0  0  0  0
    5.6273   -3.1271   -1.5175 H   0  0  0  0  0  0  0  0  0  0  0  0
    8.7322   -1.3023   -2.1915 H   0  0  0  0  0  0  0  0  0  0  0  0
   10.9334   -2.3795   -2.3040 H   0  0  0  0  0  0  0  0  0  0  0  0
    6.8950   -5.0886   -1.2808 H   0  0  0  0  0  0  0  0  0  0  0  0
    6.7427   -0.8563   -5.8792 H   0  0  0  0  0  0  0  0  0  0  0  0
    3.2332    1.4751   -4.4391 H   0  0  0  0  0  0  0  0  0  0  0  0
    0.9990    1.1368   -4.2661 H   0  0  0  0  0  0  0  0  0  0  0  0
    1.5947    2.8217   -4.0998 H   0  0  0  0  0  0  0  0  0  0  0  0
   -3.3236   -0.0401   -3.8759 H   0  0  0  0  0  0  0  0  0  0  0  0
   -5.4491   -1.0323   -4.6990 H   0  0  0  0  0  0  0  0  0  0  0  0
   -6.6797    2.5463   -6.3217 H   0  0  0  0  0  0  0  0  0  0  0  0
   -4.6216    3.7154   -5.5782 H   0  0  0  0  0  0  0  0  0  0  0  0
   -3.1735    4.6257   -3.6866 H   0  0  0  0  0  0  0  0  0  0  0  0
  1  2  1  0  0  0  0
  1 35  1  0  0  0  0
  1 36  1  0  0  0  0
  1 37  1  0  0  0  0
  2  3  1  0  0  0  0
  3  4  1  0  0  0  0
  3 21  2  0  0  0  0
  4  5  2  0  0  0  0
  4 38  1  0  0  0  0
  5  6  1  0  0  0  0
  5 19  1  0  0  0  0
  6  7  1  0  0  0  0
  6 16  2  0  0  0  0
  7  8  1  0  0  0  0
  7 39  1  0  0  0  0
  8  9  1  0  0  0  0
  8 15  2  0  0  0  0
  9 10  2  0  0  0  0
  9 40  1  0  0  0  0
 10 11  1  0  0  0  0
 10 41  1  0  0  0  0
 11 12  1  0  0  0  0
 11 13  2  0  0  0  0
 13 14  1  0  0  0  0
 13 15  1  0  0  0  0
 15 42  1  0  0  0  0
 16 17  1  0  0  0  0
 17 18  2  0  0  0  0
 17 43  1  0  0  0  0
 18 19  1  0  0  0  0
 19 20  2  0  0  0  0
 20 21  1  0  0  0  0
 20 44  1  0  0  0  0
 21 22  1  0  0  0  0
 22 23  1  0  0  0  0
 23 24  1  0  0  0  0
 23 45  1  0  0  0  0
 23 46  1  0  0  0  0
 24 25  2  0  0  0  0
 24 34  1  0  0  0  0
 25 26  1  0  0  0  0
 26 27  1  0  0  0  0
 26 33  2  0  0  0  0
 27 28  1  0  0  0  0
 27 32  2  0  0  0  0
 28 29  2  0  0  0  0
 28 47  1  0  0  0  0
 29 30  1  0  0  0  0
 29 48  1  0  0  0  0
 30 31  2  0  0  0  0
 31 32  1  0  0  0  0
 31 49  1  0  0  0  0
 32 50  1  0  0  0  0
 33 34  1  0  0  0  0
 33 51  1  0  0  0  0
M  END
$$$$
