CHEMBL258046
 OpenBabel04072215363D

 67 72  0  0  0  0  0  0  0  0999 V2000
    1.7573   -0.8596   -0.6552 C   0  0  0  0  0  0  0  0  0  0  0  0
    2.6737    0.1568    0.0145 C   0  0  0  0  0  0  0  0  0  0  0  0
    3.8300   -0.4715    0.7867 C   0  0  0  0  0  0  0  0  0  0  0  0
    3.1269    1.2679   -0.9089 C   0  0  0  0  0  0  0  0  0  0  0  0
    3.9134    1.1861   -2.1319 C   0  0  0  0  0  0  0  0  0  0  0  0
    4.5488    0.0289   -2.8739 C   0  0  0  0  0  0  0  0  0  0  0  0
    4.4557   -1.2505   -2.5486 N   0  0  0  0  0  0  0  0  0  0  0  0
    5.2222   -1.9736   -3.4602 N   0  0  0  0  0  0  0  0  0  0  0  0
    5.7378   -1.0840   -4.2739 C   0  0  0  0  0  0  0  0  0  0  0  0
    6.6105   -1.2342   -5.2718 O   0  0  0  0  0  0  0  0  0  0  0  0
    7.2537   -2.5172   -5.3831 C   0  0  0  0  0  0  0  0  0  0  0  0
    8.3705   -2.6956   -4.3503 C   0  0  0  0  0  0  0  0  0  0  0  0
    9.4749   -1.6559   -4.5397 C   0  0  0  0  0  0  0  0  0  0  0  0
   10.0487   -1.6263   -5.8831 N   0  0  0  0  0  0  0  0  0  0  0  0
    9.0613   -1.6506   -6.9603 C   0  0  0  0  0  0  0  0  0  0  0  0
    7.9180   -2.6500   -6.7639 C   0  0  0  0  0  0  0  0  0  0  0  0
    5.3484    0.1943   -3.9985 O   0  0  0  0  0  0  0  0  0  0  0  0
    4.0280    2.4778   -2.6139 C   0  0  0  0  0  0  0  0  0  0  0  0
    3.3395    3.3208   -1.7934 N   0  0  0  0  0  0  0  0  0  0  0  0
    3.1612    4.6293   -2.0200 N   0  0  0  0  0  0  0  0  0  0  0  0
    2.4481    5.2246   -1.1187 C   0  0  0  0  0  0  0  0  0  0  0  0
    1.9203    4.6634    0.0088 N   0  0  0  0  0  0  0  0  0  0  0  0
    2.1069    3.3957    0.2571 C   0  0  0  0  0  0  0  0  0  0  0  0
    1.6285    2.8551    1.4324 N   0  0  0  0  0  0  0  0  0  0  0  0
    0.5021    3.3018    2.1545 C   0  0  0  0  0  0  0  0  0  0  0  0
   -0.6088    3.8713    1.5158 C   0  0  0  0  0  0  0  0  0  0  0  0
   -1.7280    4.3140    2.2435 C   0  0  0  0  0  0  0  0  0  0  0  0
   -2.8752    4.8917    1.4872 C   0  0  0  0  0  0  0  0  0  0  0  0
   -2.8143    4.9640    0.2563 O   0  0  0  0  0  0  0  0  0  0  0  0
   -3.9779    5.2981    2.2052 N   0  0  0  0  0  0  0  0  0  0  0  0
   -5.1370    5.8440    1.5696 C   0  0  0  0  0  0  0  0  0  0  0  0
   -5.2323    7.3171    1.2822 C   0  0  0  0  0  0  0  0  0  0  0  0
   -6.0974    6.7039    2.3434 C   0  0  0  0  0  0  0  0  0  0  0  0
   -1.7184    4.1810    3.6341 C   0  0  0  0  0  0  0  0  0  0  0  0
   -2.7571    4.5947    4.3764 F   0  0  0  0  0  0  0  0  0  0  0  0
   -0.6342    3.6082    4.2919 C   0  0  0  0  0  0  0  0  0  0  0  0
    0.4575    3.1693    3.5483 C   0  0  0  0  0  0  0  0  0  0  0  0
    1.4931    2.6057    4.1889 F   0  0  0  0  0  0  0  0  0  0  0  0
    2.8388    2.6288   -0.7315 C   0  0  0  0  0  0  0  0  0  0  0  0
    1.4549   -1.6385    0.0612 H   0  0  0  0  0  0  0  0  0  0  0  0
    2.2162   -1.3508   -1.5088 H   0  0  0  0  0  0  0  0  0  0  0  0
    0.8425   -0.3702   -1.0075 H   0  0  0  0  0  0  0  0  0  0  0  0
    2.0367    0.5915    0.7889 H   0  0  0  0  0  0  0  0  0  0  0  0
    4.6104   -0.8595    0.1294 H   0  0  0  0  0  0  0  0  0  0  0  0
    3.4744   -1.2883    1.4231 H   0  0  0  0  0  0  0  0  0  0  0  0
    4.2921    0.2751    1.4460 H   0  0  0  0  0  0  0  0  0  0  0  0
    6.5081   -3.3178   -5.2897 H   0  0  0  0  0  0  0  0  0  0  0  0
    8.7988   -3.7026   -4.4477 H   0  0  0  0  0  0  0  0  0  0  0  0
    7.9731   -2.6142   -3.3336 H   0  0  0  0  0  0  0  0  0  0  0  0
   10.2838   -1.8719   -3.8315 H   0  0  0  0  0  0  0  0  0  0  0  0
    9.0995   -0.6603   -4.2791 H   0  0  0  0  0  0  0  0  0  0  0  0
   10.7310   -2.3727   -6.0006 H   0  0  0  0  0  0  0  0  0  0  0  0
    9.5884   -1.8995   -7.8903 H   0  0  0  0  0  0  0  0  0  0  0  0
    8.6531   -0.6445   -7.1066 H   0  0  0  0  0  0  0  0  0  0  0  0
    8.3163   -3.6689   -6.8777 H   0  0  0  0  0  0  0  0  0  0  0  0
    7.1797   -2.5041   -7.5605 H   0  0  0  0  0  0  0  0  0  0  0  0
    4.5143    2.8672   -3.4971 H   0  0  0  0  0  0  0  0  0  0  0  0
    2.2447    6.3036   -1.2505 H   0  0  0  0  0  0  0  0  0  0  0  0
    2.3040    2.3386    1.9875 H   0  0  0  0  0  0  0  0  0  0  0  0
   -0.6193    3.9586    0.4291 H   0  0  0  0  0  0  0  0  0  0  0  0
   -3.9997    5.1697    3.2107 H   0  0  0  0  0  0  0  0  0  0  0  0
   -5.5642    5.1769    0.8234 H   0  0  0  0  0  0  0  0  0  0  0  0
   -5.6959    7.6150    0.3487 H   0  0  0  0  0  0  0  0  0  0  0  0
   -4.4119    7.9541    1.5903 H   0  0  0  0  0  0  0  0  0  0  0  0
   -7.1546    6.5900    2.1341 H   0  0  0  0  0  0  0  0  0  0  0  0
   -5.8710    6.9465    3.3744 H   0  0  0  0  0  0  0  0  0  0  0  0
   -0.6401    3.5031    5.3710 H   0  0  0  0  0  0  0  0  0  0  0  0
  1  2  1  0  0  0  0
  1 40  1  0  0  0  0
  1 41  1  0  0  0  0
  1 42  1  0  0  0  0
  2  3  1  0  0  0  0
  2  4  1  0  0  0  0
  2 43  1  0  0  0  0
  3 44  1  0  0  0  0
  3 45  1  0  0  0  0
  3 46  1  0  0  0  0
  4  5  1  0  0  0  0
  4 39  2  0  0  0  0
  5  6  1  0  0  0  0
  5 18  2  0  0  0  0
  6  7  2  0  0  0  0
  6 17  1  0  0  0  0
  7  8  1  0  0  0  0
  8  9  2  0  0  0  0
  9 10  1  0  0  0  0
  9 17  1  0  0  0  0
 10 11  1  0  0  0  0
 11 12  1  0  0  0  0
 11 16  1  0  0  0  0
 11 47  1  0  0  0  0
 12 13  1  0  0  0  0
 12 48  1  0  0  0  0
 12 49  1  0  0  0  0
 13 14  1  0  0  0  0
 13 50  1  0  0  0  0
 13 51  1  0  0  0  0
 14 15  1  0  0  0  0
 14 52  1  0  0  0  0
 15 16  1  0  0  0  0
 15 53  1  0  0  0  0
 15 54  1  0  0  0  0
 16 55  1  0  0  0  0
 16 56  1  0  0  0  0
 18 19  1  0  0  0  0
 18 57  1  0  0  0  0
 19 20  1  0  0  0  0
 19 39  1  0  0  0  0
 20 21  2  0  0  0  0
 21 22  1  0  0  0  0
 21 58  1  0  0  0  0
 22 23  2  0  0  0  0
 23 24  1  0  0  0  0
 23 39  1  0  0  0  0
 24 25  1  0  0  0  0
 24 59  1  0  0  0  0
 25 26  1  0  0  0  0
 25 37  2  0  0  0  0
 26 27  2  0  0  0  0
 26 60  1  0  0  0  0
 27 28  1  0  0  0  0
 27 34  1  0  0  0  0
 28 29  2  0  0  0  0
 28 30  1  0  0  0  0
 30 31  1  0  0  0  0
 30 61  1  0  0  0  0
 31 32  1  0  0  0  0
 31 33  1  0  0  0  0
 31 62  1  0  0  0  0
 32 33  1  0  0  0  0
 32 63  1  0  0  0  0
 32 64  1  0  0  0  0
 33 65  1  0  0  0  0
 33 66  1  0  0  0  0
 34 35  1  0  0  0  0
 34 36  2  0  0  0  0
 36 37  1  0  0  0  0
 36 67  1  0  0  0  0
 37 38  1  0  0  0  0
M  END
$$$$
