CHEMBL1242573
 OpenBabel04072215363D

 37 40  0  0  0  0  0  0  0  0999 V2000
    1.0638    0.0350    0.0385 C   0  0  0  0  0  0  0  0  0  0  0  0
    2.5891    0.0628    0.1636 C   0  0  0  0  0  0  0  0  0  0  0  0
    3.2450    0.2744   -1.1995 C   0  0  0  0  0  0  0  0  0  0  0  0
    3.0164    1.0690    1.1305 N   0  0  0  0  0  0  0  0  0  0  0  0
    2.7203    2.3681    0.9154 N   0  0  0  0  0  0  0  0  0  0  0  0
    3.2144    3.0109    1.9887 C   0  0  0  0  0  0  0  0  0  0  0  0
    3.0870    4.4710    2.0746 C   0  0  0  0  0  0  0  0  0  0  0  0
    4.0805    5.2397    2.6914 C   0  0  0  0  0  0  0  0  0  0  0  0
    3.9433    6.6212    2.8243 C   0  0  0  0  0  0  0  0  0  0  0  0
    4.8818    7.3150    3.4820 F   0  0  0  0  0  0  0  0  0  0  0  0
    2.8383    7.2643    2.2614 C   0  0  0  0  0  0  0  0  0  0  0  0
    2.3837    8.5899    2.1442 C   0  0  0  0  0  0  0  0  0  0  0  0
    1.2375    8.6818    1.4636 N   0  0  0  0  0  0  0  0  0  0  0  0
    0.9589    7.4042    1.1430 N   0  0  0  0  0  0  0  0  0  0  0  0
    1.8801    6.5013    1.6068 C   0  0  0  0  0  0  0  0  0  0  0  0
    1.9627    5.1056    1.5060 C   0  0  0  0  0  0  0  0  0  0  0  0
    3.7987    2.0896    2.9178 C   0  0  0  0  0  0  0  0  0  0  0  0
    4.4119    2.1038    4.1806 C   0  0  0  0  0  0  0  0  0  0  0  0
    4.5920    3.2251    4.9778 N   0  0  0  0  0  0  0  0  0  0  0  0
    4.8601    0.9416    4.6979 N   0  0  0  0  0  0  0  0  0  0  0  0
    4.6779   -0.1891    3.9946 C   0  0  0  0  0  0  0  0  0  0  0  0
    4.0818   -0.3348    2.8008 N   0  0  0  0  0  0  0  0  0  0  0  0
    3.6666    0.8500    2.3139 C   0  0  0  0  0  0  0  0  0  0  0  0
    0.7434   -0.7549   -0.6493 H   0  0  0  0  0  0  0  0  0  0  0  0
    0.6729    0.9859   -0.3395 H   0  0  0  0  0  0  0  0  0  0  0  0
    0.5964   -0.1525    1.0109 H   0  0  0  0  0  0  0  0  0  0  0  0
    2.9147   -0.9119    0.5488 H   0  0  0  0  0  0  0  0  0  0  0  0
    2.9702    1.2407   -1.6372 H   0  0  0  0  0  0  0  0  0  0  0  0
    2.9398   -0.5092   -1.9039 H   0  0  0  0  0  0  0  0  0  0  0  0
    4.3362    0.2457   -1.1180 H   0  0  0  0  0  0  0  0  0  0  0  0
    4.9907    4.7885    3.0753 H   0  0  0  0  0  0  0  0  0  0  0  0
    2.8518    9.4935    2.5180 H   0  0  0  0  0  0  0  0  0  0  0  0
    0.1277    7.2159    0.5956 H   0  0  0  0  0  0  0  0  0  0  0  0
    1.1939    4.5326    0.9940 H   0  0  0  0  0  0  0  0  0  0  0  0
    3.8551    3.9169    4.9235 H   0  0  0  0  0  0  0  0  0  0  0  0
    4.8631    2.9572    5.9185 H   0  0  0  0  0  0  0  0  0  0  0  0
    5.0575   -1.0996    4.4536 H   0  0  0  0  0  0  0  0  0  0  0  0
  1  2  1  0  0  0  0
  1 24  1  0  0  0  0
  1 25  1  0  0  0  0
  1 26  1  0  0  0  0
  2  3  1  0  0  0  0
  2  4  1  0  0  0  0
  2 27  1  0  0  0  0
  3 28  1  0  0  0  0
  3 29  1  0  0  0  0
  3 30  1  0  0  0  0
  4  5  1  0  0  0  0
  4 23  1  0  0  0  0
  5  6  2  0  0  0  0
  6  7  1  0  0  0  0
  6 17  1  0  0  0  0
  7  8  1  0  0  0  0
  7 16  2  0  0  0  0
  8  9  2  0  0  0  0
  8 31  1  0  0  0  0
  9 10  1  0  0  0  0
  9 11  1  0  0  0  0
 11 12  1  0  0  0  0
 11 15  2  0  0  0  0
 12 13  2  0  0  0  0
 12 32  1  0  0  0  0
 13 14  1  0  0  0  0
 14 15  1  0  0  0  0
 14 33  1  0  0  0  0
 15 16  1  0  0  0  0
 16 34  1  0  0  0  0
 17 18  1  0  0  0  0
 17 23  2  0  0  0  0
 18 19  1  0  0  0  0
 18 20  2  0  0  0  0
 19 35  1  0  0  0  0
 19 36  1  0  0  0  0
 20 21  1  0  0  0  0
 21 22  2  0  0  0  0
 21 37  1  0  0  0  0
 22 23  1  0  0  0  0
M  END
$$$$
