CHEMBL97889
 OpenBabel04072215383D

 19 20  0  0  0  0  0  0  0  0999 V2000
   -1.4915    0.0684    0.9182 Br  0  0  0  0  0  0  0  0  0  0  0  0
    0.3739    0.0969    0.9174 C   0  0  0  0  0  0  0  0  0  0  0  0
    1.1328    0.8903    1.7321 C   0  0  0  0  0  0  0  0  0  0  0  0
    2.4929    0.7685    1.5401 N   0  0  0  0  0  0  0  0  0  0  0  0
    2.7616   -0.0894    0.5738 C   0  0  0  0  0  0  0  0  0  0  0  0
    3.9819   -0.3808    0.0777 N   0  0  0  0  0  0  0  0  0  0  0  0
    5.1103    0.4430    0.1347 C   0  0  0  0  0  0  0  0  0  0  0  0
    5.3126    1.4075    1.1219 C   0  0  0  0  0  0  0  0  0  0  0  0
    6.4085    2.2599    1.0476 C   0  0  0  0  0  0  0  0  0  0  0  0
    7.3064    2.1128    0.0064 C   0  0  0  0  0  0  0  0  0  0  0  0
    7.0730    1.1003   -0.9074 C   0  0  0  0  0  0  0  0  0  0  0  0
    6.0046    0.2691   -0.8633 N   0  0  0  0  0  0  0  0  0  0  0  0
    1.3525   -0.8489   -0.0955 S   0  0  0  0  0  0  0  0  0  0  0  0
    0.7695    1.5859    2.4773 H   0  0  0  0  0  0  0  0  0  0  0  0
    4.0466   -0.9638   -0.7489 H   0  0  0  0  0  0  0  0  0  0  0  0
    4.6216    1.5211    1.9494 H   0  0  0  0  0  0  0  0  0  0  0  0
    6.5423    3.0335    1.7985 H   0  0  0  0  0  0  0  0  0  0  0  0
    8.1660    2.7651   -0.0877 H   0  0  0  0  0  0  0  0  0  0  0  0
    7.7572    0.9296   -1.7329 H   0  0  0  0  0  0  0  0  0  0  0  0
  1  2  1  0  0  0  0
  2  3  2  0  0  0  0
  2 13  1  0  0  0  0
  3  4  1  0  0  0  0
  3 14  1  0  0  0  0
  4  5  2  0  0  0  0
  5  6  1  0  0  0  0
  5 13  1  0  0  0  0
  6  7  1  0  0  0  0
  6 15  1  0  0  0  0
  7  8  1  0  0  0  0
  7 12  2  0  0  0  0
  8  9  2  0  0  0  0
  8 16  1  0  0  0  0
  9 10  1  0  0  0  0
  9 17  1  0  0  0  0
 10 11  2  0  0  0  0
 10 18  1  0  0  0  0
 11 12  1  0  0  0  0
 11 19  1  0  0  0  0
M  END
$$$$
