CHEMBL2023478
 OpenBabel04072215363D

 55 58  0  0  0  0  0  0  0  0999 V2000
    2.9513    1.2056    0.4807 C   0  0  0  0  0  0  0  0  0  0  0  0
    4.2903    0.8459    0.1252 O   0  0  0  0  0  0  0  0  0  0  0  0
    4.3990    0.1199   -1.0303 C   0  0  0  0  0  0  0  0  0  0  0  0
    3.4542    0.1183   -2.0437 C   0  0  0  0  0  0  0  0  0  0  0  0
    3.6498   -0.6837   -3.1616 C   0  0  0  0  0  0  0  0  0  0  0  0
    4.8420   -1.4186   -3.3631 C   0  0  0  0  0  0  0  0  0  0  0  0
    5.1819   -2.1389   -4.5415 C   0  0  0  0  0  0  0  0  0  0  0  0
    4.4705   -2.2008   -5.7330 O   0  0  0  0  0  0  0  0  0  0  0  0
    3.7138   -1.1444   -6.1799 C   0  0  0  0  0  0  0  0  0  0  0  0
    4.0426    0.2013   -6.0268 C   0  0  0  0  0  0  0  0  0  0  0  0
    3.0728    1.1824   -6.2707 C   0  0  0  0  0  0  0  0  0  0  0  0
    1.7871    0.8454   -6.7411 C   0  0  0  0  0  0  0  0  0  0  0  0
    0.7023    1.8981   -6.8432 C   0  0  0  0  0  0  0  0  0  0  0  0
    0.7299    3.0284   -5.8294 C   0  0  0  0  0  0  0  0  0  0  0  0
    1.2087    4.1241   -6.1121 O   0  0  0  0  0  0  0  0  0  0  0  0
    0.1722    2.6878   -4.6147 N   0  0  0  0  0  0  0  0  0  0  0  0
    0.0496    3.5815   -3.5721 C   0  0  0  0  0  0  0  0  0  0  0  0
    0.3410    3.1793   -2.3315 N   0  0  0  0  0  0  0  0  0  0  0  0
    0.1605    4.2796   -1.5196 O   0  0  0  0  0  0  0  0  0  0  0  0
   -0.3358    5.3065   -2.2530 C   0  0  0  0  0  0  0  0  0  0  0  0
   -0.6738    6.5373   -1.5068 C   0  0  0  0  0  0  0  0  0  0  0  0
   -0.4563    4.9188   -3.5727 C   0  0  0  0  0  0  0  0  0  0  0  0
   -1.0807    5.6901   -4.6737 C   0  0  0  0  0  0  0  0  0  0  0  0
    1.5599   -0.4918   -7.1173 C   0  0  0  0  0  0  0  0  0  0  0  0
    0.4134   -0.9933   -7.6776 O   0  0  0  0  0  0  0  0  0  0  0  0
   -0.1820   -0.2416   -8.7327 C   0  0  0  0  0  0  0  0  0  0  0  0
    2.5063   -1.4766   -6.8001 C   0  0  0  0  0  0  0  0  0  0  0  0
    6.3239   -2.9341   -4.5488 C   0  0  0  0  0  0  0  0  0  0  0  0
    7.1342   -2.9338   -3.4384 C   0  0  0  0  0  0  0  0  0  0  0  0
    6.8970   -2.1894   -2.3379 N   0  0  0  0  0  0  0  0  0  0  0  0
    5.7797   -1.4389   -2.3054 C   0  0  0  0  0  0  0  0  0  0  0  0
    5.5406   -0.6690   -1.1677 C   0  0  0  0  0  0  0  0  0  0  0  0
    2.9789    1.6426    1.4829 H   0  0  0  0  0  0  0  0  0  0  0  0
    2.3149    0.3134    0.5237 H   0  0  0  0  0  0  0  0  0  0  0  0
    2.5446    1.9557   -0.1976 H   0  0  0  0  0  0  0  0  0  0  0  0
    2.5686    0.7441   -2.0095 H   0  0  0  0  0  0  0  0  0  0  0  0
    2.8407   -0.7152   -3.8812 H   0  0  0  0  0  0  0  0  0  0  0  0
    5.0066    0.4930   -5.6127 H   0  0  0  0  0  0  0  0  0  0  0  0
    3.3236    2.2162   -6.0306 H   0  0  0  0  0  0  0  0  0  0  0  0
   -0.2766    1.4261   -6.7131 H   0  0  0  0  0  0  0  0  0  0  0  0
    0.7294    2.3469   -7.8421 H   0  0  0  0  0  0  0  0  0  0  0  0
    0.2826    1.7288   -4.3117 H   0  0  0  0  0  0  0  0  0  0  0  0
   -0.3565    6.4704   -0.4612 H   0  0  0  0  0  0  0  0  0  0  0  0
   -1.7558    6.7017   -1.5202 H   0  0  0  0  0  0  0  0  0  0  0  0
   -0.1877    7.4107   -1.9520 H   0  0  0  0  0  0  0  0  0  0  0  0
   -1.4762    6.6481   -4.3148 H   0  0  0  0  0  0  0  0  0  0  0  0
   -1.9271    5.1316   -5.0915 H   0  0  0  0  0  0  0  0  0  0  0  0
   -0.3753    5.9094   -5.4754 H   0  0  0  0  0  0  0  0  0  0  0  0
   -0.5559   -0.9385   -9.4887 H   0  0  0  0  0  0  0  0  0  0  0  0
    0.5087    0.4490   -9.2279 H   0  0  0  0  0  0  0  0  0  0  0  0
   -1.0521    0.2956   -8.3418 H   0  0  0  0  0  0  0  0  0  0  0  0
    2.2876   -2.5210   -7.0106 H   0  0  0  0  0  0  0  0  0  0  0  0
    6.5809   -3.5403   -5.4146 H   0  0  0  0  0  0  0  0  0  0  0  0
    8.0281   -3.5489   -3.3897 H   0  0  0  0  0  0  0  0  0  0  0  0
    6.2772   -0.6830   -0.3668 H   0  0  0  0  0  0  0  0  0  0  0  0
  1  2  1  0  0  0  0
  1 33  1  0  0  0  0
  1 34  1  0  0  0  0
  1 35  1  0  0  0  0
  2  3  1  0  0  0  0
  3  4  1  0  0  0  0
  3 32  2  0  0  0  0
  4  5  2  0  0  0  0
  4 36  1  0  0  0  0
  5  6  1  0  0  0  0
  5 37  1  0  0  0  0
  6  7  1  0  0  0  0
  6 31  2  0  0  0  0
  7  8  1  0  0  0  0
  7 28  2  0  0  0  0
  8  9  1  0  0  0  0
  9 10  1  0  0  0  0
  9 27  2  0  0  0  0
 10 11  2  0  0  0  0
 10 38  1  0  0  0  0
 11 12  1  0  0  0  0
 11 39  1  0  0  0  0
 12 13  1  0  0  0  0
 12 24  2  0  0  0  0
 13 14  1  0  0  0  0
 13 40  1  0  0  0  0
 13 41  1  0  0  0  0
 14 15  2  0  0  0  0
 14 16  1  0  0  0  0
 16 17  1  0  0  0  0
 16 42  1  0  0  0  0
 17 18  2  0  0  0  0
 17 22  1  0  0  0  0
 18 19  1  0  0  0  0
 19 20  1  0  0  0  0
 20 21  1  0  0  0  0
 20 22  2  0  0  0  0
 21 43  1  0  0  0  0
 21 44  1  0  0  0  0
 21 45  1  0  0  0  0
 22 23  1  0  0  0  0
 23 46  1  0  0  0  0
 23 47  1  0  0  0  0
 23 48  1  0  0  0  0
 24 25  1  0  0  0  0
 24 27  1  0  0  0  0
 25 26  1  0  0  0  0
 26 49  1  0  0  0  0
 26 50  1  0  0  0  0
 26 51  1  0  0  0  0
 27 52  1  0  0  0  0
 28 29  1  0  0  0  0
 28 53  1  0  0  0  0
 29 30  2  0  0  0  0
 29 54  1  0  0  0  0
 30 31  1  0  0  0  0
 31 32  1  0  0  0  0
 32 55  1  0  0  0  0
M  END
$$$$
