CHEMBL3633297
 OpenBabel04072215373D

 46 49  0  0  0  0  0  0  0  0999 V2000
   -0.5551    2.2934    3.3630 N   0  0  0  0  0  0  0  0  0  0  0  0
   -0.8208    1.1107    2.7846 C   0  0  0  0  0  0  0  0  0  0  0  0
   -0.9887    0.0298    3.5358 N   0  0  0  0  0  0  0  0  0  0  0  0
   -1.2026   -0.9451    2.6514 N   0  0  0  0  0  0  0  0  0  0  0  0
   -1.1961   -0.5357    1.3481 C   0  0  0  0  0  0  0  0  0  0  0  0
   -1.3824   -1.2771    0.1762 C   0  0  0  0  0  0  0  0  0  0  0  0
   -1.3374   -0.5877   -1.0269 C   0  0  0  0  0  0  0  0  0  0  0  0
   -1.1030    0.7841   -1.0419 C   0  0  0  0  0  0  0  0  0  0  0  0
   -0.8823    1.5435    0.1394 C   0  0  0  0  0  0  0  0  0  0  0  0
   -0.5195    2.9721    0.0305 C   0  0  0  0  0  0  0  0  0  0  0  0
    0.3830    3.3695   -0.9778 C   0  0  0  0  0  0  0  0  0  0  0  0
    0.7836    4.6895   -1.1147 C   0  0  0  0  0  0  0  0  0  0  0  0
    0.3078    5.6428   -0.2249 C   0  0  0  0  0  0  0  0  0  0  0  0
   -0.6364    5.3159    0.7558 C   0  0  0  0  0  0  0  0  0  0  0  0
   -1.1968    6.2909    1.6310 N   0  0  0  0  0  0  0  0  0  0  0  0
   -1.1766    7.6491    1.3617 C   0  0  0  0  0  0  0  0  0  0  0  0
   -0.6568    8.1274    0.3551 O   0  0  0  0  0  0  0  0  0  0  0  0
   -1.8064    8.4300    2.3138 N   0  0  0  0  0  0  0  0  0  0  0  0
   -2.0232    9.8274    2.1245 C   0  0  0  0  0  0  0  0  0  0  0  0
   -2.0571   10.4027    0.8456 C   0  0  0  0  0  0  0  0  0  0  0  0
   -2.1406   11.7806    0.6638 C   0  0  0  0  0  0  0  0  0  0  0  0
   -2.2543   12.6104    1.7676 C   0  0  0  0  0  0  0  0  0  0  0  0
   -2.3094   12.0637    3.0589 C   0  0  0  0  0  0  0  0  0  0  0  0
   -2.4923   12.9693    4.2509 C   0  0  0  0  0  0  0  0  0  0  0  0
   -2.5657   14.2929    3.9208 F   0  0  0  0  0  0  0  0  0  0  0  0
   -3.6356   12.6966    4.9365 F   0  0  0  0  0  0  0  0  0  0  0  0
   -1.4783   12.8667    5.1499 F   0  0  0  0  0  0  0  0  0  0  0  0
   -2.1918   10.6635    3.2309 C   0  0  0  0  0  0  0  0  0  0  0  0
   -1.0492    3.9793    0.8648 C   0  0  0  0  0  0  0  0  0  0  0  0
   -0.9509    0.8424    1.3785 C   0  0  0  0  0  0  0  0  0  0  0  0
   -0.3317    2.2312    4.3516 H   0  0  0  0  0  0  0  0  0  0  0  0
    0.0474    2.9481    2.8742 H   0  0  0  0  0  0  0  0  0  0  0  0
   -1.3476   -1.8855    2.9993 H   0  0  0  0  0  0  0  0  0  0  0  0
   -1.5602   -2.3474    0.1995 H   0  0  0  0  0  0  0  0  0  0  0  0
   -1.4774   -1.1208   -1.9641 H   0  0  0  0  0  0  0  0  0  0  0  0
   -1.0804    1.2794   -2.0126 H   0  0  0  0  0  0  0  0  0  0  0  0
    0.7966    2.6439   -1.6742 H   0  0  0  0  0  0  0  0  0  0  0  0
    1.4708    4.9821   -1.9042 H   0  0  0  0  0  0  0  0  0  0  0  0
    0.7054    6.6452   -0.3390 H   0  0  0  0  0  0  0  0  0  0  0  0
   -1.8454    5.9634    2.3327 H   0  0  0  0  0  0  0  0  0  0  0  0
   -1.8120    8.0806    3.2631 H   0  0  0  0  0  0  0  0  0  0  0  0
   -2.0052    9.7952   -0.0546 H   0  0  0  0  0  0  0  0  0  0  0  0
   -2.1072   12.1924   -0.3411 H   0  0  0  0  0  0  0  0  0  0  0  0
   -2.3085   13.6867    1.6146 H   0  0  0  0  0  0  0  0  0  0  0  0
   -2.2046   10.2531    4.2376 H   0  0  0  0  0  0  0  0  0  0  0  0
   -1.8075    3.7117    1.5982 H   0  0  0  0  0  0  0  0  0  0  0  0
  1  2  1  0  0  0  0
  1 31  1  0  0  0  0
  1 32  1  0  0  0  0
  2  3  2  0  0  0  0
  2 30  1  0  0  0  0
  3  4  1  0  0  0  0
  4  5  1  0  0  0  0
  4 33  1  0  0  0  0
  5  6  1  0  0  0  0
  5 30  2  0  0  0  0
  6  7  2  0  0  0  0
  6 34  1  0  0  0  0
  7  8  1  0  0  0  0
  7 35  1  0  0  0  0
  8  9  2  0  0  0  0
  8 36  1  0  0  0  0
  9 10  1  0  0  0  0
  9 30  1  0  0  0  0
 10 11  1  0  0  0  0
 10 29  2  0  0  0  0
 11 12  2  0  0  0  0
 11 37  1  0  0  0  0
 12 13  1  0  0  0  0
 12 38  1  0  0  0  0
 13 14  2  0  0  0  0
 13 39  1  0  0  0  0
 14 15  1  0  0  0  0
 14 29  1  0  0  0  0
 15 16  1  0  0  0  0
 15 40  1  0  0  0  0
 16 17  2  0  0  0  0
 16 18  1  0  0  0  0
 18 19  1  0  0  0  0
 18 41  1  0  0  0  0
 19 20  1  0  0  0  0
 19 28  2  0  0  0  0
 20 21  2  0  0  0  0
 20 42  1  0  0  0  0
 21 22  1  0  0  0  0
 21 43  1  0  0  0  0
 22 23  2  0  0  0  0
 22 44  1  0  0  0  0
 23 24  1  0  0  0  0
 23 28  1  0  0  0  0
 24 25  1  0  0  0  0
 24 26  1  0  0  0  0
 24 27  1  0  0  0  0
 28 45  1  0  0  0  0
 29 46  1  0  0  0  0
M  END
$$$$
