CHEMBL3957928
 OpenBabel04072215373D

 60 64  0  0  0  0  0  0  0  0999 V2000
    1.2606    0.2919    0.1776 C   0  0  0  0  0  0  0  0  0  0  0  0
    2.2612   -0.4270   -0.5399 O   0  0  0  0  0  0  0  0  0  0  0  0
    2.9723    0.2642   -1.4838 C   0  0  0  0  0  0  0  0  0  0  0  0
    2.6383    1.5053   -2.0052 C   0  0  0  0  0  0  0  0  0  0  0  0
    3.4478    2.0759   -2.9921 C   0  0  0  0  0  0  0  0  0  0  0  0
    3.1891    3.2679   -3.6208 O   0  0  0  0  0  0  0  0  0  0  0  0
    2.0978    4.0259   -3.1148 C   0  0  0  0  0  0  0  0  0  0  0  0
    4.6318    1.4394   -3.4070 C   0  0  0  0  0  0  0  0  0  0  0  0
    5.0582    0.2428   -2.8252 C   0  0  0  0  0  0  0  0  0  0  0  0
    6.3155   -0.3395   -3.1367 N   0  0  0  0  0  0  0  0  0  0  0  0
    6.7626   -1.4487   -2.2266 C   0  0  0  0  0  0  0  0  0  0  0  0
    7.1757   -0.9343   -0.9211 C   0  0  0  0  0  0  0  0  0  0  0  0
    7.5295   -0.4423    0.1233 C   0  0  0  0  0  0  0  0  0  0  0  0
    7.9618    0.2252    1.3013 C   0  0  0  0  0  0  0  0  0  0  0  0
    7.3011   -0.1152    2.4320 N   0  0  0  0  0  0  0  0  0  0  0  0
    7.6475    0.5559    3.5547 C   0  0  0  0  0  0  0  0  0  0  0  0
    8.6259    1.5441    3.5953 C   0  0  0  0  0  0  0  0  0  0  0  0
    9.2982    1.8590    2.4202 C   0  0  0  0  0  0  0  0  0  0  0  0
    8.9624    1.1871    1.2525 C   0  0  0  0  0  0  0  0  0  0  0  0
    9.5980    1.4878    0.1098 F   0  0  0  0  0  0  0  0  0  0  0  0
    7.4313    0.1181   -3.9187 C   0  0  0  0  0  0  0  0  0  0  0  0
    8.0174   -0.8488   -4.7250 C   0  0  0  0  0  0  0  0  0  0  0  0
    9.3550   -0.7864   -5.0301 C   0  0  0  0  0  0  0  0  0  0  0  0
   10.1107    0.3001   -4.6831 C   0  0  0  0  0  0  0  0  0  0  0  0
   11.4265    0.1312   -4.8409 N   0  0  0  0  0  0  0  0  0  0  0  0
   12.1906    1.2221   -4.7152 C   0  0  0  0  0  0  0  0  0  0  0  0
   11.6536    2.4781   -4.5307 C   0  0  0  0  0  0  0  0  0  0  0  0
   12.5431    3.5888   -4.8463 C   0  0  0  0  0  0  0  0  0  0  0  0
   12.6624    4.3426   -6.0464 C   0  0  0  0  0  0  0  0  0  0  0  0
   13.7597    5.1114   -6.0756 N   0  0  0  0  0  0  0  0  0  0  0  0
   14.3539    4.8490   -4.8997 N   0  0  0  0  0  0  0  0  0  0  0  0
   15.4233    5.6884   -4.4117 C   0  0  0  0  0  0  0  0  0  0  0  0
   13.7564    3.8242   -4.2180 C   0  0  0  0  0  0  0  0  0  0  0  0
   10.3176    2.6423   -4.2286 N   0  0  0  0  0  0  0  0  0  0  0  0
    9.5150    1.4946   -4.2179 C   0  0  0  0  0  0  0  0  0  0  0  0
    8.1472    1.3441   -3.7697 C   0  0  0  0  0  0  0  0  0  0  0  0
    4.1392   -0.3642   -1.9328 C   0  0  0  0  0  0  0  0  0  0  0  0
    0.9953   -0.2921    1.0653 H   0  0  0  0  0  0  0  0  0  0  0  0
    0.3605    0.4047   -0.4333 H   0  0  0  0  0  0  0  0  0  0  0  0
    1.6241    1.2640    0.5275 H   0  0  0  0  0  0  0  0  0  0  0  0
    1.7496    2.0082   -1.6557 H   0  0  0  0  0  0  0  0  0  0  0  0
    2.0222    4.9416   -3.7069 H   0  0  0  0  0  0  0  0  0  0  0  0
    2.2715    4.3127   -2.0713 H   0  0  0  0  0  0  0  0  0  0  0  0
    1.1517    3.4839   -3.2219 H   0  0  0  0  0  0  0  0  0  0  0  0
    5.2244    1.9071   -4.1875 H   0  0  0  0  0  0  0  0  0  0  0  0
    7.6091   -2.0069   -2.6310 H   0  0  0  0  0  0  0  0  0  0  0  0
    5.9950   -2.2227   -2.1436 H   0  0  0  0  0  0  0  0  0  0  0  0
    7.1013    0.2752    4.4489 H   0  0  0  0  0  0  0  0  0  0  0  0
    8.8574    2.0523    4.5247 H   0  0  0  0  0  0  0  0  0  0  0  0
   10.0660    2.6252    2.3977 H   0  0  0  0  0  0  0  0  0  0  0  0
    7.4623   -1.7485   -4.9913 H   0  0  0  0  0  0  0  0  0  0  0  0
    9.8437   -1.6369   -5.4976 H   0  0  0  0  0  0  0  0  0  0  0  0
   13.2550    1.0554   -4.8480 H   0  0  0  0  0  0  0  0  0  0  0  0
   12.0226    4.3345   -6.9202 H   0  0  0  0  0  0  0  0  0  0  0  0
   15.6290    6.4878   -5.1288 H   0  0  0  0  0  0  0  0  0  0  0  0
   16.3184    5.0837   -4.2487 H   0  0  0  0  0  0  0  0  0  0  0  0
   15.0829    6.1252   -3.4685 H   0  0  0  0  0  0  0  0  0  0  0  0
   14.2260    3.3836   -3.3497 H   0  0  0  0  0  0  0  0  0  0  0  0
    7.6888    2.1739   -3.2237 H   0  0  0  0  0  0  0  0  0  0  0  0
    4.3077   -1.3555   -1.5212 H   0  0  0  0  0  0  0  0  0  0  0  0
  1  2  1  0  0  0  0
  1 38  1  0  0  0  0
  1 39  1  0  0  0  0
  1 40  1  0  0  0  0
  2  3  1  0  0  0  0
  3  4  1  0  0  0  0
  3 37  2  0  0  0  0
  4  5  2  0  0  0  0
  4 41  1  0  0  0  0
  5  6  1  0  0  0  0
  5  8  1  0  0  0  0
  6  7  1  0  0  0  0
  7 42  1  0  0  0  0
  7 43  1  0  0  0  0
  7 44  1  0  0  0  0
  8  9  2  0  0  0  0
  8 45  1  0  0  0  0
  9 10  1  0  0  0  0
  9 37  1  0  0  0  0
 10 11  1  0  0  0  0
 10 21  1  0  0  0  0
 11 12  1  0  0  0  0
 11 46  1  0  0  0  0
 11 47  1  0  0  0  0
 12 13  3  0  0  0  0
 13 14  1  0  0  0  0
 14 15  1  0  0  0  0
 14 19  2  0  0  0  0
 15 16  2  0  0  0  0
 16 17  1  0  0  0  0
 16 48  1  0  0  0  0
 17 18  2  0  0  0  0
 17 49  1  0  0  0  0
 18 19  1  0  0  0  0
 18 50  1  0  0  0  0
 19 20  1  0  0  0  0
 21 22  1  0  0  0  0
 21 36  2  0  0  0  0
 22 23  2  0  0  0  0
 22 51  1  0  0  0  0
 23 24  1  0  0  0  0
 23 52  1  0  0  0  0
 24 25  1  0  0  0  0
 24 35  2  0  0  0  0
 25 26  2  0  0  0  0
 26 27  1  0  0  0  0
 26 53  1  0  0  0  0
 27 28  1  0  0  0  0
 27 34  2  0  0  0  0
 28 29  1  0  0  0  0
 28 33  2  0  0  0  0
 29 30  2  0  0  0  0
 29 54  1  0  0  0  0
 30 31  1  0  0  0  0
 31 32  1  0  0  0  0
 31 33  1  0  0  0  0
 32 55  1  0  0  0  0
 32 56  1  0  0  0  0
 32 57  1  0  0  0  0
 33 58  1  0  0  0  0
 34 35  1  0  0  0  0
 35 36  1  0  0  0  0
 36 59  1  0  0  0  0
 37 60  1  0  0  0  0
M  END
$$$$
