CHEMBL4066412
 OpenBabel04072215383D

242251  0  0  1  0  0  0  0  0999 V2000
    3.7858  -10.1796   -9.7164 C   0  0  0  0  0  0  0  0  0  0  0  0
    5.2429   -9.9653   -9.3204 C   0  0  0  0  0  0  0  0  0  0  0  0
    5.4924   -9.1510   -8.1048 N   0  0  0  0  0  0  0  0  0  0  0  0
    4.8750   -9.7526   -6.8927 C   0  0  0  0  0  0  0  0  0  0  0  0
    4.7765   -8.8355   -5.6420 C   0  0  0  0  0  0  0  0  0  0  0  0
    4.2932   -9.4998   -4.4623 N   0  0  0  0  0  0  0  0  0  0  0  0
    5.0845  -10.3645   -3.7322 C   0  0  0  0  0  0  0  0  0  0  0  0
    6.2174  -10.6978   -4.0751 O   0  0  0  0  0  0  0  0  0  0  0  0
    4.4678  -10.7696   -2.4704 C   0  0  0  0  0  0  0  0  0  0  0  0
    3.1046  -10.9081   -2.2292 C   0  0  0  0  0  0  0  0  0  0  0  0
    1.9016  -10.7539   -3.0937 C   0  0  0  0  0  0  0  0  0  0  0  0
    2.9504  -11.2783   -0.9172 N   0  0  0  0  0  0  0  0  0  0  0  0
    4.1661  -11.4187   -0.2955 C   0  0  0  0  0  0  0  0  0  0  0  0
    4.2754  -11.8227    1.0604 C   0  0  0  0  0  0  0  0  0  0  0  0
    3.3116  -12.1074    1.9548 C   0  0  0  0  0  0  0  0  0  0  0  0
    1.8075  -12.0719    1.8469 C   0  0  0  0  0  0  0  0  0  0  0  0
    1.1190  -11.7553    0.8843 O   0  0  0  0  0  0  0  0  0  0  0  0
    1.3388  -12.4649    3.0830 N   0  0  0  0  0  0  0  0  0  0  0  0
    2.3745  -12.7373    3.9593 C   0  0  0  0  0  0  0  0  0  0  0  0
    2.2605  -13.1456    5.2726 C   0  0  0  0  0  0  0  0  0  0  0  0
    3.4371  -13.3636    5.9780 C   0  0  0  0  0  0  0  0  0  0  0  0
    4.6838  -13.1805    5.3599 C   0  0  0  0  0  0  0  0  0  0  0  0
    5.7943  -13.4112    6.0679 F   0  0  0  0  0  0  0  0  0  0  0  0
    4.7901  -12.7720    4.0277 C   0  0  0  0  0  0  0  0  0  0  0  0
    3.6163  -12.5386    3.3334 C   0  0  0  0  0  0  0  0  0  0  0  0
    5.1393  -11.1069   -1.2375 C   0  0  0  0  0  0  0  0  0  0  0  0
    6.6199  -11.0949   -1.0340 C   0  0  0  0  0  0  0  0  0  0  0  0
    6.9793   -8.9992   -8.0093 C   0  0  0  0  0  0  0  0  0  0  0  0
    7.4663   -8.1964   -6.8112 C   0  0  0  0  0  0  0  0  0  0  0  0
    8.8377   -7.8078   -6.8256 O   0  0  0  0  0  0  0  0  0  0  0  0
    9.1061   -7.1774   -5.5623 C   0  0  0  0  0  0  0  0  0  0  0  0
   10.5998   -7.0548   -5.3109 C   0  0  0  0  0  0  0  0  0  0  0  0
   10.9104   -6.3794   -4.0890 O   0  0  0  0  0  0  0  0  0  0  0  0
   10.3953   -6.9850   -2.8870 C   0  0  0  0  0  0  0  0  0  0  0  0
   10.8919   -8.4191   -2.6577 C   0  0  0  0  0  0  0  0  0  0  0  0
   12.3375   -8.4747   -2.5016 N   0  0  0  0  0  0  0  0  0  0  0  0
   12.9250   -8.3404   -1.2565 C   0  0  0  0  0  0  0  0  0  0  0  0
   12.3078   -8.0554   -0.2417 O   0  0  0  0  0  0  0  0  0  0  0  0
   14.4085   -8.5670   -1.1945 C   0  0  0  0  0  0  0  0  0  0  0  0
   15.1646   -8.0265   -0.1406 C   0  0  0  0  0  0  0  0  0  0  0  0
   16.5540   -8.2232   -0.0992 C   0  0  0  0  0  0  0  0  0  0  0  0
   17.2501   -7.5480    0.9010 O   0  0  0  0  0  0  0  0  0  0  0  0
   18.4720   -6.8237    0.5279 C   0  0  0  0  0  0  0  0  0  0  0  0
   18.3517   -6.1747   -0.7943 C   0  0  0  0  0  0  0  0  0  0  0  0
   17.2038   -5.5666   -1.2350 C   0  0  0  0  0  0  0  0  0  0  0  0
   16.9545   -6.1254   -2.4285 N   0  0  0  0  0  0  0  0  0  0  0  0
   15.7072   -5.9887   -3.1611 C   0  0  0  0  0  0  0  0  0  0  0  0
   14.9563   -4.5797   -3.3319 C   0  0  0  0  0  0  0  0  0  0  0  0
   15.6216   -3.1439   -3.3555 C   0  0  0  0  0  0  0  0  0  0  0  0
   16.1832   -2.2819   -4.5616 C   0  0  0  0  0  0  0  0  0  0  0  0
   17.3646   -1.4013   -4.2267 N   0  0  0  0  0  0  0  0  0  0  0  0
   18.3265   -1.8364   -3.1249 C   0  0  0  0  0  0  0  0  0  0  0  0
   17.8670   -0.9343   -1.9540 C   0  0  2  0  0  0  0  0  0  0  0  0
   17.7487    0.4064   -2.6742 C   0  0  0  0  0  0  0  0  0  0  0  0
   16.8324   -0.0913   -3.7607 C   0  0  1  0  0  0  0  0  0  0  0  0
   16.5546    0.8164   -4.9490 C   0  0  0  0  0  0  0  0  0  0  0  0
   16.9239    0.6498   -6.0707 O   0  0  0  0  0  0  0  0  0  0  0  0
   15.7399    1.9275   -4.7401 N   0  0  0  0  0  0  0  0  0  0  0  0
   14.7602    2.1508   -3.6870 C   0  0  1  0  0  0  0  0  0  0  0  0
   13.8904    3.2998   -4.2087 C   0  0  0  0  0  0  0  0  0  0  0  0
   13.0813    2.8897   -5.4562 C   0  0  0  0  0  0  0  0  0  0  0  0
   12.2965    4.0822   -5.9710 C   0  0  0  0  0  0  0  0  0  0  0  0
   11.4722    3.7095   -7.0974 N   0  0  0  0  0  0  0  0  0  0  0  0
   10.6822    4.5916   -7.7449 C   0  0  0  0  0  0  0  0  0  0  0  0
   10.4574    5.8175   -7.4524 N   0  0  0  0  0  0  0  0  0  0  0  0
   10.0714    4.0369   -8.8055 N   0  0  0  0  0  0  0  0  0  0  0  0
   13.8128    0.9782   -3.2780 C   0  0  0  0  0  0  0  0  0  0  0  0
   13.7945   -0.1179   -3.8248 O   0  0  0  0  0  0  0  0  0  0  0  0
   13.0404    1.2492   -2.1661 N   0  0  0  0  0  0  0  0  0  0  0  0
   12.6288    0.1452   -1.3119 C   0  0  0  0  0  0  0  0  0  0  0  0
   13.8295   -0.0712   -0.3832 C   0  0  0  0  0  0  0  0  0  0  0  0
   14.4084    0.9009    0.1366 O   0  0  0  0  0  0  0  0  0  0  0  0
   14.2784   -1.3607   -0.2182 N   0  0  0  0  0  0  0  0  0  0  0  0
   15.3838   -1.6171    0.7165 C   0  0  1  0  0  0  0  0  0  0  0  0
   14.9635   -2.6253    1.8127 C   0  0  0  0  0  0  0  0  0  0  0  0
   14.2650   -3.8758    1.3623 C   0  0  0  0  0  0  0  0  0  0  0  0
   13.0913   -4.1381    1.5749 O   0  0  0  0  0  0  0  0  0  0  0  0
   15.0816   -4.7210    0.7395 O   0  0  0  0  0  0  0  0  0  0  0  0
   16.7405   -1.9846    0.0243 C   0  0  0  0  0  0  0  0  0  0  0  0
   17.0443   -3.1623   -0.1159 O   0  0  0  0  0  0  0  0  0  0  0  0
   17.5174   -0.9436   -0.5191 N   0  0  0  0  0  0  0  0  0  0  0  0
   18.0488   -6.8053   -2.8313 N   0  0  0  0  0  0  0  0  0  0  0  0
   18.9804   -6.7006   -1.8765 N   0  0  0  0  0  0  0  0  0  0  0  0
   17.1592   -8.9629   -1.1374 C   0  0  0  0  0  0  0  0  0  0  0  0
   16.4141   -9.3984   -2.2610 C   0  0  0  0  0  0  0  0  0  0  0  0
   17.1147   -9.8611   -3.3515 O   0  0  0  0  0  0  0  0  0  0  0  0
   16.4561  -10.0420   -4.6437 C   0  0  0  0  0  0  0  0  0  0  0  0
   16.2636   -8.8007   -5.4589 C   0  0  0  0  0  0  0  0  0  0  0  0
   17.1607   -7.7805   -5.6513 C   0  0  0  0  0  0  0  0  0  0  0  0
   16.4630   -6.7791   -6.2575 N   0  0  0  0  0  0  0  0  0  0  0  0
   16.6518   -5.3520   -6.1026 C   0  0  0  0  0  0  0  0  0  0  0  0
   17.5187   -4.8721   -4.9464 C   0  0  0  0  0  0  0  0  0  0  0  0
   18.9477   -5.1970   -4.7412 C   0  0  0  0  0  0  0  0  0  0  0  0
   19.5025   -4.2172   -5.6727 C   0  0  0  0  0  0  0  0  0  0  0  0
   20.9108   -4.4243   -5.7567 N   0  0  0  0  0  0  0  0  0  0  0  0
   21.5386   -3.8965   -4.5071 C   0  0  0  0  0  0  0  0  0  0  0  0
   21.8897   -2.5070   -4.9842 C   0  0  2  0  0  0  0  0  0  0  0  0
   22.4596   -2.8589   -6.3841 C   0  0  0  0  0  0  0  0  0  0  0  0
   21.2025   -3.4999   -6.8897 C   0  0  1  0  0  0  0  0  0  0  0  0
   20.7057   -4.0933   -8.2261 C   0  0  0  0  0  0  0  0  0  0  0  0
   20.1067   -5.1703   -8.3393 O   0  0  0  0  0  0  0  0  0  0  0  0
   20.6028   -3.3072   -9.3152 N   0  0  0  0  0  0  0  0  0  0  0  0
   20.8836   -1.8960   -9.5106 C   0  0  1  0  0  0  0  0  0  0  0  0
   20.6975   -1.6416  -11.0020 C   0  0  0  0  0  0  0  0  0  0  0  0
   21.6855   -2.4503  -11.8468 C   0  0  0  0  0  0  0  0  0  0  0  0
   21.3865   -2.2200  -13.3157 C   0  0  0  0  0  0  0  0  0  0  0  0
   22.2953   -2.9906  -14.1356 N   0  0  0  0  0  0  0  0  0  0  0  0
   22.3225   -2.9003  -15.4744 C   0  0  0  0  0  0  0  0  0  0  0  0
   21.4984   -2.2827  -16.2500 N   0  0  0  0  0  0  0  0  0  0  0  0
   23.3505   -3.5828  -16.0103 N   0  0  0  0  0  0  0  0  0  0  0  0
   19.9477   -0.9390   -8.7221 C   0  0  0  0  0  0  0  0  0  0  0  0
   19.0605   -1.3259   -7.9674 O   0  0  0  0  0  0  0  0  0  0  0  0
   20.2687    0.3987   -8.8579 N   0  0  0  0  0  0  0  0  0  0  0  0
   19.8746    1.3379   -7.8176 C   0  0  0  0  0  0  0  0  0  0  0  0
   20.9936    1.2349   -6.7686 C   0  0  0  0  0  0  0  0  0  0  0  0
   22.1722    1.3743   -7.1230 O   0  0  0  0  0  0  0  0  0  0  0  0
   20.6755    0.8873   -5.4672 N   0  0  0  0  0  0  0  0  0  0  0  0
   21.7494    0.7441   -4.4473 C   0  0  1  0  0  0  0  0  0  0  0  0
   21.7188    1.9131   -3.4651 C   0  0  0  0  0  0  0  0  0  0  0  0
   22.6952    1.6589   -2.3427 C   0  0  0  0  0  0  0  0  0  0  0  0
   23.9041    1.7761   -2.4709 O   0  0  0  0  0  0  0  0  0  0  0  0
   22.1266    1.1964   -1.2089 O   0  0  0  0  0  0  0  0  0  0  0  0
   21.7687   -0.5758   -3.6154 C   0  0  0  0  0  0  0  0  0  0  0  0
   21.0581   -0.7100   -2.6138 O   0  0  0  0  0  0  0  0  0  0  0  0
   22.5883   -1.5955   -4.1204 N   0  0  0  0  0  0  0  0  0  0  0  0
   15.2397   -7.2451   -6.6242 N   0  0  0  0  0  0  0  0  0  0  0  0
   15.1117   -8.4806   -6.1343 N   0  0  0  0  0  0  0  0  0  0  0  0
   15.0364   -9.2564   -2.2413 C   0  0  0  0  0  0  0  0  0  0  0  0
    3.7375  -10.4889  -10.7677 H   0  0  0  0  0  0  0  0  0  0  0  0
    3.1942   -9.2657   -9.6133 H   0  0  0  0  0  0  0  0  0  0  0  0
    3.3216  -10.9749   -9.1251 H   0  0  0  0  0  0  0  0  0  0  0  0
    5.7149   -9.4519  -10.1682 H   0  0  0  0  0  0  0  0  0  0  0  0
    5.7277  -10.9465   -9.2336 H   0  0  0  0  0  0  0  0  0  0  0  0
    5.3571  -10.7080   -6.6519 H   0  0  0  0  0  0  0  0  0  0  0  0
    3.8290   -9.9987   -7.1191 H   0  0  0  0  0  0  0  0  0  0  0  0
    4.1081   -7.9919   -5.8466 H   0  0  0  0  0  0  0  0  0  0  0  0
    5.7069   -8.3993   -5.3058 H   0  0  0  0  0  0  0  0  0  0  0  0
    3.5978   -9.0094   -3.9165 H   0  0  0  0  0  0  0  0  0  0  0  0
    2.1525  -10.6093   -4.1484 H   0  0  0  0  0  0  0  0  0  0  0  0
    1.3129   -9.8896   -2.7687 H   0  0  0  0  0  0  0  0  0  0  0  0
    1.2745  -11.6466   -3.0483 H   0  0  0  0  0  0  0  0  0  0  0  0
    2.0460  -11.4375   -0.4818 H   0  0  0  0  0  0  0  0  0  0  0  0
    5.3037  -11.9129    1.4104 H   0  0  0  0  0  0  0  0  0  0  0  0
    0.3516  -12.5364    3.2899 H   0  0  0  0  0  0  0  0  0  0  0  0
    1.2884  -13.2968    5.7357 H   0  0  0  0  0  0  0  0  0  0  0  0
    3.4150  -13.6777    7.0212 H   0  0  0  0  0  0  0  0  0  0  0  0
    5.7687  -12.6467    3.5791 H   0  0  0  0  0  0  0  0  0  0  0  0
    6.9035  -11.3517   -0.0099 H   0  0  0  0  0  0  0  0  0  0  0  0
    7.0296  -10.0999   -1.2442 H   0  0  0  0  0  0  0  0  0  0  0  0
    7.1003  -11.8198   -1.6992 H   0  0  0  0  0  0  0  0  0  0  0  0
    7.3493   -8.5061   -8.9165 H   0  0  0  0  0  0  0  0  0  0  0  0
    7.4605   -9.9860   -7.9757 H   0  0  0  0  0  0  0  0  0  0  0  0
    7.3728   -8.8603   -5.9500 H   0  0  0  0  0  0  0  0  0  0  0  0
    6.8605   -7.2871   -6.7085 H   0  0  0  0  0  0  0  0  0  0  0  0
    8.6605   -7.7745   -4.7568 H   0  0  0  0  0  0  0  0  0  0  0  0
    8.6271   -6.1912   -5.5332 H   0  0  0  0  0  0  0  0  0  0  0  0
   11.0513   -6.4790   -6.1234 H   0  0  0  0  0  0  0  0  0  0  0  0
   11.0803   -8.0377   -5.3422 H   0  0  0  0  0  0  0  0  0  0  0  0
    9.3035   -6.9592   -2.8918 H   0  0  0  0  0  0  0  0  0  0  0  0
   10.7108   -6.3416   -2.0543 H   0  0  0  0  0  0  0  0  0  0  0  0
   10.6189   -9.0832   -3.4767 H   0  0  0  0  0  0  0  0  0  0  0  0
   10.4322   -8.8053   -1.7494 H   0  0  0  0  0  0  0  0  0  0  0  0
   12.8711   -8.3597   -3.3352 H   0  0  0  0  0  0  0  0  0  0  0  0
   14.6846   -7.3865    0.6025 H   0  0  0  0  0  0  0  0  0  0  0  0
   19.3194   -7.5159    0.5635 H   0  0  0  0  0  0  0  0  0  0  0  0
   18.6530   -6.0457    1.2866 H   0  0  0  0  0  0  0  0  0  0  0  0
   16.3282   -5.2128   -0.7728 H   0  0  0  0  0  0  0  0  0  0  0  0
   15.0057   -6.7350   -2.8135 H   0  0  0  0  0  0  0  0  0  0  0  0
   15.9231   -6.3818   -4.1253 H   0  0  0  0  0  0  0  0  0  0  0  0
   14.3344   -4.5488   -2.4295 H   0  0  0  0  0  0  0  0  0  0  0  0
   14.2674   -4.6668   -4.1768 H   0  0  0  0  0  0  0  0  0  0  0  0
   16.3744   -3.2082   -2.5810 H   0  0  0  0  0  0  0  0  0  0  0  0
   14.8439   -2.4791   -2.9631 H   0  0  0  0  0  0  0  0  0  0  0  0
   15.3788   -1.6564   -4.9644 H   0  0  0  0  0  0  0  0  0  0  0  0
   16.3997   -2.7587   -5.5201 H   0  0  0  0  0  0  0  0  0  0  0  0
   19.2874   -1.5285   -3.5368 H   0  0  0  0  0  0  0  0  0  0  0  0
   18.4329   -2.9006   -2.9302 H   0  0  0  0  0  0  0  0  0  0  0  0
   16.8986   -1.3963   -2.0503 H   0  0  0  0  0  0  0  0  0  0  0  0
   18.6934    0.7680   -3.0902 H   0  0  0  0  0  0  0  0  0  0  0  0
   17.3253    1.1944   -2.0560 H   0  0  0  0  0  0  0  0  0  0  0  0
   15.8858   -0.2893   -3.2449 H   0  0  0  0  0  0  0  0  0  0  0  0
   15.6876    2.4371   -5.5924 H   0  0  0  0  0  0  0  0  0  0  0  0
   15.3088    2.4591   -2.7921 H   0  0  0  0  0  0  0  0  0  0  0  0
   13.2106    3.6459   -3.4253 H   0  0  0  0  0  0  0  0  0  0  0  0
   14.5428    4.1446   -4.4671 H   0  0  0  0  0  0  0  0  0  0  0  0
   12.3991    2.0639   -5.2195 H   0  0  0  0  0  0  0  0  0  0  0  0
   13.7364    2.5185   -6.2557 H   0  0  0  0  0  0  0  0  0  0  0  0
   12.9923    4.8772   -6.2616 H   0  0  0  0  0  0  0  0  0  0  0  0
   11.6584    4.4588   -5.1642 H   0  0  0  0  0  0  0  0  0  0  0  0
   11.8902    3.0336   -7.7312 H   0  0  0  0  0  0  0  0  0  0  0  0
   10.9932    6.0811   -6.6265 H   0  0  0  0  0  0  0  0  0  0  0  0
    9.6580    3.1378   -8.5924 H   0  0  0  0  0  0  0  0  0  0  0  0
    9.3630    4.6787   -9.1502 H   0  0  0  0  0  0  0  0  0  0  0  0
   13.2229    2.1122   -1.6658 H   0  0  0  0  0  0  0  0  0  0  0  0
   12.3698   -0.7478   -1.8842 H   0  0  0  0  0  0  0  0  0  0  0  0
   11.7708    0.4785   -0.7153 H   0  0  0  0  0  0  0  0  0  0  0  0
   13.8730   -2.1174   -0.7570 H   0  0  0  0  0  0  0  0  0  0  0  0
   15.6103   -0.7027    1.2695 H   0  0  0  0  0  0  0  0  0  0  0  0
   15.8229   -2.9257    2.4233 H   0  0  0  0  0  0  0  0  0  0  0  0
   14.2481   -2.1349    2.4817 H   0  0  0  0  0  0  0  0  0  0  0  0
   15.9933   -4.3469    0.6687 H   0  0  0  0  0  0  0  0  0  0  0  0
   17.1558   -0.0401   -0.2285 H   0  0  0  0  0  0  0  0  0  0  0  0
   18.2429   -9.0573   -1.1710 H   0  0  0  0  0  0  0  0  0  0  0  0
   15.5331  -10.6214   -4.5431 H   0  0  0  0  0  0  0  0  0  0  0  0
   17.1395  -10.6780   -5.2191 H   0  0  0  0  0  0  0  0  0  0  0  0
   18.1282   -7.6635   -5.2035 H   0  0  0  0  0  0  0  0  0  0  0  0
   15.6468   -4.9294   -5.9297 H   0  0  0  0  0  0  0  0  0  0  0  0
   16.9655   -4.9219   -7.0538 H   0  0  0  0  0  0  0  0  0  0  0  0
   17.1172   -4.7743   -3.9756 H   0  0  0  0  0  0  0  0  0  0  0  0
   17.5751   -3.8119   -5.0562 H   0  0  0  0  0  0  0  0  0  0  0  0
   19.2655   -6.2077   -4.9483 H   0  0  0  0  0  0  0  0  0  0  0  0
   19.2428   -4.9397   -3.7253 H   0  0  0  0  0  0  0  0  0  0  0  0
   19.2761   -3.1899   -5.3499 H   0  0  0  0  0  0  0  0  0  0  0  0
   18.9722   -4.3329   -6.6197 H   0  0  0  0  0  0  0  0  0  0  0  0
   22.4004   -4.5277   -4.2651 H   0  0  0  0  0  0  0  0  0  0  0  0
   20.9147   -3.8830   -3.6034 H   0  0  0  0  0  0  0  0  0  0  0  0
   20.9330   -1.9857   -5.1123 H   0  0  0  0  0  0  0  0  0  0  0  0
   23.2643   -3.6094   -6.3263 H   0  0  0  0  0  0  0  0  0  0  0  0
   22.7833   -2.0035   -6.9615 H   0  0  0  0  0  0  0  0  0  0  0  0
   20.5095   -2.6450   -6.8533 H   0  0  0  0  0  0  0  0  0  0  0  0
   20.0178   -3.7756   -9.9990 H   0  0  0  0  0  0  0  0  0  0  0  0
   21.9130   -1.7068   -9.1799 H   0  0  0  0  0  0  0  0  0  0  0  0
   19.6721   -1.9325  -11.2755 H   0  0  0  0  0  0  0  0  0  0  0  0
   20.7880   -0.5775  -11.2406 H   0  0  0  0  0  0  0  0  0  0  0  0
   21.6122   -3.5234  -11.6288 H   0  0  0  0  0  0  0  0  0  0  0  0
   22.7101   -2.1512  -11.6005 H   0  0  0  0  0  0  0  0  0  0  0  0
   21.4816   -1.1542  -13.5427 H   0  0  0  0  0  0  0  0  0  0  0  0
   20.3574   -2.5260  -13.5301 H   0  0  0  0  0  0  0  0  0  0  0  0
   23.2130   -3.1413  -13.7327 H   0  0  0  0  0  0  0  0  0  0  0  0
   20.7796   -1.8251  -15.6891 H   0  0  0  0  0  0  0  0  0  0  0  0
   23.4767   -4.4948  -15.5955 H   0  0  0  0  0  0  0  0  0  0  0  0
   23.2101   -3.6562  -17.0128 H   0  0  0  0  0  0  0  0  0  0  0  0
   21.1423    0.6277   -9.3183 H   0  0  0  0  0  0  0  0  0  0  0  0
   18.8798    1.1286   -7.4296 H   0  0  0  0  0  0  0  0  0  0  0  0
   19.8981    2.3420   -8.2556 H   0  0  0  0  0  0  0  0  0  0  0  0
   19.6959    0.7150   -5.2446 H   0  0  0  0  0  0  0  0  0  0  0  0
   22.7078    0.7663   -4.9692 H   0  0  0  0  0  0  0  0  0  0  0  0
   22.0132    2.8432   -3.9651 H   0  0  0  0  0  0  0  0  0  0  0  0
   20.7199    2.0972   -3.0524 H   0  0  0  0  0  0  0  0  0  0  0  0
   21.2863    0.7068   -1.3712 H   0  0  0  0  0  0  0  0  0  0  0  0
   23.4345   -1.2656   -4.5398 H   0  0  0  0  0  0  0  0  0  0  0  0
   14.4460   -9.6432   -3.0593 H   0  0  0  0  0  0  0  0  0  0  0  0
  1  2  1  0  0  0  0
  1129  1  0  0  0  0
  1130  1  0  0  0  0
  1131  1  0  0  0  0
  2  3  1  0  0  0  0
  2132  1  0  0  0  0
  2133  1  0  0  0  0
  3  4  1  0  0  0  0
  3 28  1  0  0  0  0
  4  5  1  0  0  0  0
  4134  1  0  0  0  0
  4135  1  0  0  0  0
  5  6  1  0  0  0  0
  5136  1  0  0  0  0
  5137  1  0  0  0  0
  6  7  1  0  0  0  0
  6138  1  0  0  0  0
  7  8  2  0  0  0  0
  7  9  1  0  0  0  0
  9 10  2  0  0  0  0
  9 26  1  0  0  0  0
 10 11  1  0  0  0  0
 10 12  1  0  0  0  0
 11139  1  0  0  0  0
 11140  1  0  0  0  0
 11141  1  0  0  0  0
 12 13  1  0  0  0  0
 12142  1  0  0  0  0
 13 14  1  0  0  0  0
 13 26  2  0  0  0  0
 14 15  2  0  0  0  0
 14143  1  0  0  0  0
 15 16  1  0  0  0  0
 15 25  1  0  0  0  0
 16 17  2  0  0  0  0
 16 18  1  0  0  0  0
 18 19  1  0  0  0  0
 18144  1  0  0  0  0
 19 20  1  0  0  0  0
 19 25  2  0  0  0  0
 20 21  2  0  0  0  0
 20145  1  0  0  0  0
 21 22  1  0  0  0  0
 21146  1  0  0  0  0
 22 23  1  0  0  0  0
 22 24  2  0  0  0  0
 24 25  1  0  0  0  0
 24147  1  0  0  0  0
 26 27  1  0  0  0  0
 27148  1  0  0  0  0
 27149  1  0  0  0  0
 27150  1  0  0  0  0
 28 29  1  0  0  0  0
 28151  1  0  0  0  0
 28152  1  0  0  0  0
 29 30  1  0  0  0  0
 29153  1  0  0  0  0
 29154  1  0  0  0  0
 30 31  1  0  0  0  0
 31 32  1  0  0  0  0
 31155  1  0  0  0  0
 31156  1  0  0  0  0
 32 33  1  0  0  0  0
 32157  1  0  0  0  0
 32158  1  0  0  0  0
 33 34  1  0  0  0  0
 34 35  1  0  0  0  0
 34159  1  0  0  0  0
 34160  1  0  0  0  0
 35 36  1  0  0  0  0
 35161  1  0  0  0  0
 35162  1  0  0  0  0
 36 37  1  0  0  0  0
 36163  1  0  0  0  0
 37 38  2  0  0  0  0
 37 39  1  0  0  0  0
 39 40  1  0  0  0  0
 39128  2  0  0  0  0
 40 41  2  0  0  0  0
 40164  1  0  0  0  0
 41 42  1  0  0  0  0
 41 84  1  0  0  0  0
 42 43  1  0  0  0  0
 43 44  1  0  0  0  0
 43165  1  0  0  0  0
 43166  1  0  0  0  0
 44 45  2  0  0  0  0
 44 83  1  0  0  0  0
 45 46  1  0  0  0  0
 45167  1  0  0  0  0
 46 47  1  0  0  0  0
 46 82  1  0  0  0  0
 47 48  1  0  0  0  0
 47168  1  0  0  0  0
 47169  1  0  0  0  0
 48 49  1  0  0  0  0
 48170  1  0  0  0  0
 48171  1  0  0  0  0
 49 50  1  0  0  0  0
 49172  1  0  0  0  0
 49173  1  0  0  0  0
 50 51  1  0  0  0  0
 50174  1  0  0  0  0
 50175  1  0  0  0  0
 51 52  1  0  0  0  0
 51 55  1  0  0  0  0
 52 53  1  0  0  0  0
 52176  1  0  0  0  0
 52177  1  0  0  0  0
 53 54  1  0  0  0  0
 53 81  1  0  0  0  0
 53178  1  6  0  0  0
 54 55  1  0  0  0  0
 54179  1  0  0  0  0
 54180  1  0  0  0  0
 55 56  1  0  0  0  0
 55181  1  1  0  0  0
 56 57  2  0  0  0  0
 56 58  1  0  0  0  0
 58 59  1  0  0  0  0
 58182  1  0  0  0  0
 59 67  1  0  0  0  0
 59 60  1  0  0  0  0
 59183  1  1  0  0  0
 60 61  1  0  0  0  0
 60184  1  0  0  0  0
 60185  1  0  0  0  0
 61 62  1  0  0  0  0
 61186  1  0  0  0  0
 61187  1  0  0  0  0
 62 63  1  0  0  0  0
 62188  1  0  0  0  0
 62189  1  0  0  0  0
 63 64  1  0  0  0  0
 63190  1  0  0  0  0
 64 65  2  0  0  0  0
 64 66  1  0  0  0  0
 65191  1  0  0  0  0
 66192  1  0  0  0  0
 66193  1  0  0  0  0
 67 68  2  0  0  0  0
 67 69  1  0  0  0  0
 69 70  1  0  0  0  0
 69194  1  0  0  0  0
 70 71  1  0  0  0  0
 70195  1  0  0  0  0
 70196  1  0  0  0  0
 71 72  2  0  0  0  0
 71 73  1  0  0  0  0
 73 74  1  0  0  0  0
 73197  1  0  0  0  0
 74 79  1  0  0  0  0
 74 75  1  0  0  0  0
 74198  1  1  0  0  0
 75 76  1  0  0  0  0
 75199  1  0  0  0  0
 75200  1  0  0  0  0
 76 77  2  0  0  0  0
 76 78  1  0  0  0  0
 78201  1  0  0  0  0
 79 80  2  0  0  0  0
 79 81  1  0  0  0  0
 81202  1  0  0  0  0
 82 83  2  0  0  0  0
 84 85  2  0  0  0  0
 84203  1  0  0  0  0
 85 86  1  0  0  0  0
 85128  1  0  0  0  0
 86 87  1  0  0  0  0
 87 88  1  0  0  0  0
 87204  1  0  0  0  0
 87205  1  0  0  0  0
 88 89  2  0  0  0  0
 88127  1  0  0  0  0
 89 90  1  0  0  0  0
 89206  1  0  0  0  0
 90 91  1  0  0  0  0
 90126  1  0  0  0  0
 91 92  1  0  0  0  0
 91207  1  0  0  0  0
 91208  1  0  0  0  0
 92 93  1  0  0  0  0
 92209  1  0  0  0  0
 92210  1  0  0  0  0
 93 94  1  0  0  0  0
 93211  1  0  0  0  0
 93212  1  0  0  0  0
 94 95  1  0  0  0  0
 94213  1  0  0  0  0
 94214  1  0  0  0  0
 95 96  1  0  0  0  0
 95 99  1  0  0  0  0
 96 97  1  0  0  0  0
 96215  1  0  0  0  0
 96216  1  0  0  0  0
 97 98  1  0  0  0  0
 97125  1  0  0  0  0
 97217  1  6  0  0  0
 98 99  1  0  0  0  0
 98218  1  0  0  0  0
 98219  1  0  0  0  0
 99100  1  0  0  0  0
 99220  1  1  0  0  0
100101  2  0  0  0  0
100102  1  0  0  0  0
102103  1  0  0  0  0
102221  1  0  0  0  0
103111  1  0  0  0  0
103104  1  0  0  0  0
103222  1  1  0  0  0
104105  1  0  0  0  0
104223  1  0  0  0  0
104224  1  0  0  0  0
105106  1  0  0  0  0
105225  1  0  0  0  0
105226  1  0  0  0  0
106107  1  0  0  0  0
106227  1  0  0  0  0
106228  1  0  0  0  0
107108  1  0  0  0  0
107229  1  0  0  0  0
108109  2  0  0  0  0
108110  1  0  0  0  0
109230  1  0  0  0  0
110231  1  0  0  0  0
110232  1  0  0  0  0
111112  2  0  0  0  0
111113  1  0  0  0  0
113114  1  0  0  0  0
113233  1  0  0  0  0
114115  1  0  0  0  0
114234  1  0  0  0  0
114235  1  0  0  0  0
115116  2  0  0  0  0
115117  1  0  0  0  0
117118  1  0  0  0  0
117236  1  0  0  0  0
118123  1  0  0  0  0
118119  1  0  0  0  0
118237  1  6  0  0  0
119120  1  0  0  0  0
119238  1  0  0  0  0
119239  1  0  0  0  0
120121  2  0  0  0  0
120122  1  0  0  0  0
122240  1  0  0  0  0
123124  2  0  0  0  0
123125  1  0  0  0  0
125241  1  0  0  0  0
126127  2  0  0  0  0
128242  1  0  0  0  0
M  END
$$$$
