CHEMBL1095154
 OpenBabel04072215363D

 67 70  0  0  0  0  0  0  0  0999 V2000
    0.2042   -2.5086    0.0072 Cl  0  0  0  0  0  0  0  0  0  0  0  0
    3.0279   -0.1668   -1.3657 N   0  0  0  0  0  0  0  0  0  0  0  0
    2.5044    0.4176   -0.1300 C   0  0  0  0  0  0  0  0  0  0  0  0
    2.9943   -0.3259    1.1364 C   0  0  0  0  0  0  0  0  0  0  0  0
    4.4876   -0.4012    1.1921 C   0  0  0  0  0  0  0  0  0  0  0  0
    5.2678   -1.5567    1.1994 C   0  0  0  0  0  0  0  0  0  0  0  0
    6.5770   -1.2287    1.1895 N   0  0  0  0  0  0  0  0  0  0  0  0
    7.7034   -2.1752    1.2224 C   0  0  0  0  0  0  0  0  0  0  0  0
    8.5767   -1.8625    2.4114 C   0  0  0  0  0  0  0  0  0  0  0  0
    8.0694   -1.9261    3.7178 C   0  0  0  0  0  0  0  0  0  0  0  0
    8.8486   -1.5019    4.8032 C   0  0  0  0  0  0  0  0  0  0  0  0
   10.1429   -0.9797    4.5947 C   0  0  0  0  0  0  0  0  0  0  0  0
   10.9267   -0.3686    5.7155 C   0  0  0  0  0  0  0  0  0  0  0  0
   10.7098   -0.7263    7.0656 C   0  0  0  0  0  0  0  0  0  0  0  0
   11.4215   -0.0928    8.0939 C   0  0  0  0  0  0  0  0  0  0  0  0
   12.3399    0.9146    7.7975 C   0  0  0  0  0  0  0  0  0  0  0  0
   12.5605    1.2863    6.4730 C   0  0  0  0  0  0  0  0  0  0  0  0
   11.8697    0.6484    5.4436 C   0  0  0  0  0  0  0  0  0  0  0  0
   10.6577   -0.9799    3.2816 C   0  0  0  0  0  0  0  0  0  0  0  0
    9.8920   -1.4279    2.2110 C   0  0  0  0  0  0  0  0  0  0  0  0
    6.6294    0.1262    1.1635 C   0  0  0  0  0  0  0  0  0  0  0  0
    7.7466    0.9602    1.1056 C   0  0  0  0  0  0  0  0  0  0  0  0
    7.5431    2.3491    1.1284 C   0  0  0  0  0  0  0  0  0  0  0  0
    6.2294    2.8934    1.2260 C   0  0  0  0  0  0  0  0  0  0  0  0
    5.9959    4.2299    1.2904 O   0  0  0  0  0  0  0  0  0  0  0  0
    6.9898    5.1789    1.2183 C   0  0  0  0  0  0  0  0  0  0  0  0
    6.4322    6.5921    1.3886 C   0  0  0  0  0  0  0  0  0  0  0  0
    7.5632    7.5797    1.2377 C   0  0  0  0  0  0  0  0  0  0  0  0
    7.5594    8.5136    0.1903 C   0  0  0  0  0  0  0  0  0  0  0  0
    8.6346    9.3931    0.0271 C   0  0  0  0  0  0  0  0  0  0  0  0
    9.7239    9.3510    0.9073 C   0  0  0  0  0  0  0  0  0  0  0  0
   10.7724   10.1816    0.7526 O   0  0  0  0  0  0  0  0  0  0  0  0
    9.7283    8.4301    1.9597 C   0  0  0  0  0  0  0  0  0  0  0  0
    8.6546    7.5530    2.1287 C   0  0  0  0  0  0  0  0  0  0  0  0
    5.1292    2.0289    1.2606 C   0  0  0  0  0  0  0  0  0  0  0  0
    5.3645    0.6545    1.2099 C   0  0  0  0  0  0  0  0  0  0  0  0
    0.1775   -1.4468    0.8828 H   0  0  0  0  0  0  0  0  0  0  0  0
    4.0228    0.1265   -1.5056 H   0  0  0  0  0  0  0  0  0  0  0  0
    2.9793   -1.2101   -1.3253 H   0  0  0  0  0  0  0  0  0  0  0  0
    1.3971    0.3882   -0.1543 H   0  0  0  0  0  0  0  0  0  0  0  0
    2.7845    1.4890   -0.1079 H   0  0  0  0  0  0  0  0  0  0  0  0
    2.5928   -1.3591    1.1313 H   0  0  0  0  0  0  0  0  0  0  0  0
    2.6117    0.1940    2.0406 H   0  0  0  0  0  0  0  0  0  0  0  0
    4.8900   -2.5722    1.2026 H   0  0  0  0  0  0  0  0  0  0  0  0
    8.2792   -2.0713    0.2773 H   0  0  0  0  0  0  0  0  0  0  0  0
    7.3344   -3.2224    1.2869 H   0  0  0  0  0  0  0  0  0  0  0  0
    7.0553   -2.2662    3.8939 H   0  0  0  0  0  0  0  0  0  0  0  0
    8.4014   -1.5223    5.7866 H   0  0  0  0  0  0  0  0  0  0  0  0
   10.0045   -1.4992    7.3363 H   0  0  0  0  0  0  0  0  0  0  0  0
   11.2543   -0.3784    9.1238 H   0  0  0  0  0  0  0  0  0  0  0  0
   12.8770    1.4155    8.5919 H   0  0  0  0  0  0  0  0  0  0  0  0
   13.2601    2.0790    6.2397 H   0  0  0  0  0  0  0  0  0  0  0  0
   12.0551    0.9943    4.4365 H   0  0  0  0  0  0  0  0  0  0  0  0
   11.6511   -0.6196    3.0623 H   0  0  0  0  0  0  0  0  0  0  0  0
   10.3091   -1.3810    1.2132 H   0  0  0  0  0  0  0  0  0  0  0  0
    8.7485    0.5737    1.0370 H   0  0  0  0  0  0  0  0  0  0  0  0
    8.4123    2.9884    1.0821 H   0  0  0  0  0  0  0  0  0  0  0  0
    7.4869    5.1025    0.2268 H   0  0  0  0  0  0  0  0  0  0  0  0
    7.7271    4.9844    2.0255 H   0  0  0  0  0  0  0  0  0  0  0  0
    5.9567    6.7053    2.3875 H   0  0  0  0  0  0  0  0  0  0  0  0
    5.6546    6.7674    0.6127 H   0  0  0  0  0  0  0  0  0  0  0  0
    6.7329    8.5537   -0.5079 H   0  0  0  0  0  0  0  0  0  0  0  0
    8.6214   10.1031   -0.7907 H   0  0  0  0  0  0  0  0  0  0  0  0
   10.8154   10.8248    0.0309 H   0  0  0  0  0  0  0  0  0  0  0  0
   10.5665    8.3863    2.6437 H   0  0  0  0  0  0  0  0  0  0  0  0
    8.6838    6.8457    2.9471 H   0  0  0  0  0  0  0  0  0  0  0  0
    4.1302    2.4288    1.3358 H   0  0  0  0  0  0  0  0  0  0  0  0
  1 37  1  0  0  0  0
  2  3  1  0  0  0  0
  2 38  1  0  0  0  0
  2 39  1  0  0  0  0
  3  4  1  0  0  0  0
  3 40  1  0  0  0  0
  3 41  1  0  0  0  0
  4  5  1  0  0  0  0
  4 42  1  0  0  0  0
  4 43  1  0  0  0  0
  5  6  2  0  0  0  0
  5 36  1  0  0  0  0
  6  7  1  0  0  0  0
  6 44  1  0  0  0  0
  7  8  1  0  0  0  0
  7 21  1  0  0  0  0
  8  9  1  0  0  0  0
  8 45  1  0  0  0  0
  8 46  1  0  0  0  0
  9 10  1  0  0  0  0
  9 20  2  0  0  0  0
 10 11  2  0  0  0  0
 10 47  1  0  0  0  0
 11 12  1  0  0  0  0
 11 48  1  0  0  0  0
 12 13  1  0  0  0  0
 12 19  2  0  0  0  0
 13 14  1  0  0  0  0
 13 18  2  0  0  0  0
 14 15  2  0  0  0  0
 14 49  1  0  0  0  0
 15 16  1  0  0  0  0
 15 50  1  0  0  0  0
 16 17  2  0  0  0  0
 16 51  1  0  0  0  0
 17 18  1  0  0  0  0
 17 52  1  0  0  0  0
 18 53  1  0  0  0  0
 19 20  1  0  0  0  0
 19 54  1  0  0  0  0
 20 55  1  0  0  0  0
 21 22  1  0  0  0  0
 21 36  2  0  0  0  0
 22 23  2  0  0  0  0
 22 56  1  0  0  0  0
 23 24  1  0  0  0  0
 23 57  1  0  0  0  0
 24 25  1  0  0  0  0
 24 35  2  0  0  0  0
 25 26  1  0  0  0  0
 26 27  1  0  0  0  0
 26 58  1  0  0  0  0
 26 59  1  0  0  0  0
 27 28  1  0  0  0  0
 27 60  1  0  0  0  0
 27 61  1  0  0  0  0
 28 29  1  0  0  0  0
 28 34  2  0  0  0  0
 29 30  2  0  0  0  0
 29 62  1  0  0  0  0
 30 31  1  0  0  0  0
 30 63  1  0  0  0  0
 31 32  1  0  0  0  0
 31 33  2  0  0  0  0
 32 64  1  0  0  0  0
 33 34  1  0  0  0  0
 33 65  1  0  0  0  0
 34 66  1  0  0  0  0
 35 36  1  0  0  0  0
 35 67  1  0  0  0  0
M  END
$$$$
