CHEMBL3633687
 OpenBabel04072215373D

 77 83  0  0  0  0  0  0  0  0999 V2000
    4.1927   -5.7784   -2.5105 C   0  0  0  0  0  0  0  0  0  0  0  0
    5.5315   -6.3519   -2.9522 C   0  0  0  0  0  0  0  0  0  0  0  0
    6.6142   -5.4464   -2.6353 N   0  0  0  0  0  0  0  0  0  0  0  0
    7.1461   -4.4760   -3.4294 C   0  0  0  0  0  0  0  0  0  0  0  0
    7.7995   -3.6479   -2.5379 C   0  0  0  0  0  0  0  0  0  0  0  0
    8.4255   -2.2997   -2.7118 C   0  0  0  0  0  0  0  0  0  0  0  0
    7.7056   -1.4129   -3.6617 N   0  0  0  0  0  0  0  0  0  0  0  0
    6.2630   -1.2649   -3.3473 C   0  0  0  0  0  0  0  0  0  0  0  0
    5.8688   -0.6214   -2.0360 C   0  0  0  0  0  0  0  0  0  0  0  0
    5.6324   -1.3763   -0.8857 C   0  0  0  0  0  0  0  0  0  0  0  0
    5.1746   -0.7647    0.2848 C   0  0  0  0  0  0  0  0  0  0  0  0
    4.9463    0.6070    0.2935 C   0  0  0  0  0  0  0  0  0  0  0  0
    4.3160    1.3611    1.4035 C   0  0  0  0  0  0  0  0  0  0  0  0
    4.0328    2.7154    1.4300 C   0  0  0  0  0  0  0  0  0  0  0  0
    3.1961    3.1038    2.5141 C   0  0  0  0  0  0  0  0  0  0  0  0
    2.6566    4.3423    2.6505 N   0  0  0  0  0  0  0  0  0  0  0  0
    1.7541    4.4732    3.6364 C   0  0  0  0  0  0  0  0  0  0  0  0
    1.3994    3.4887    4.5443 C   0  0  0  0  0  0  0  0  0  0  0  0
    2.0458    2.2555    4.4983 C   0  0  0  0  0  0  0  0  0  0  0  0
    1.7673    1.1823    5.3048 O   0  0  0  0  0  0  0  0  0  0  0  0
    1.2482    1.1874    6.5843 C   0  0  0  0  0  0  0  0  0  0  0  0
    1.0134   -0.1310    7.0303 C   0  0  0  0  0  0  0  0  0  0  0  0
    0.5578   -0.4353    8.3156 C   0  0  0  0  0  0  0  0  0  0  0  0
    0.2646    0.6571    9.1092 C   0  0  0  0  0  0  0  0  0  0  0  0
   -0.2585    0.6310   10.3629 O   0  0  0  0  0  0  0  0  0  0  0  0
   -0.3848    1.9506   10.7097 C   0  0  0  0  0  0  0  0  0  0  0  0
   -0.9041    2.1262   11.9402 N   0  0  0  0  0  0  0  0  0  0  0  0
   -0.8830    3.2888   12.7306 C   0  0  0  0  0  0  0  0  0  0  0  0
   -0.6833    4.5675   12.1978 C   0  0  0  0  0  0  0  0  0  0  0  0
   -0.5311    5.6814   13.0307 C   0  0  0  0  0  0  0  0  0  0  0  0
   -0.5956    5.5295   14.4100 C   0  0  0  0  0  0  0  0  0  0  0  0
   -0.3194    6.8821   15.4346 Cl  0  0  0  0  0  0  0  0  0  0  0  0
   -0.8599    4.2806   14.9623 C   0  0  0  0  0  0  0  0  0  0  0  0
   -1.0174    3.1700   14.1243 C   0  0  0  0  0  0  0  0  0  0  0  0
    0.0469    2.7885    9.7819 N   0  0  0  0  0  0  0  0  0  0  0  0
    0.4537    1.9763    8.7411 C   0  0  0  0  0  0  0  0  0  0  0  0
    0.9993    2.2582    7.4621 C   0  0  0  0  0  0  0  0  0  0  0  0
    2.9244    2.0563    3.3941 C   0  0  0  0  0  0  0  0  0  0  0  0
    3.7561    0.6293    2.8604 S   0  0  0  0  0  0  0  0  0  0  0  0
    5.1946    1.3643   -0.8063 N   0  0  0  0  0  0  0  0  0  0  0  0
    5.6388    0.7429   -1.9279 C   0  0  0  0  0  0  0  0  0  0  0  0
    8.4047   -0.1109   -3.8462 C   0  0  0  0  0  0  0  0  0  0  0  0
    9.8920   -0.2566   -4.2251 C   0  0  0  0  0  0  0  0  0  0  0  0
    7.7678    0.7517   -4.9530 C   0  0  0  0  0  0  0  0  0  0  0  0
    7.7771   -4.2354   -1.2953 N   0  0  0  0  0  0  0  0  0  0  0  0
    7.0517   -5.3412   -1.3701 N   0  0  0  0  0  0  0  0  0  0  0  0
    3.3787   -6.4695   -2.7462 H   0  0  0  0  0  0  0  0  0  0  0  0
    3.9900   -4.8248   -3.0110 H   0  0  0  0  0  0  0  0  0  0  0  0
    4.1790   -5.5901   -1.4309 H   0  0  0  0  0  0  0  0  0  0  0  0
    5.5380   -6.5206   -4.0341 H   0  0  0  0  0  0  0  0  0  0  0  0
    5.7339   -7.3056   -2.4538 H   0  0  0  0  0  0  0  0  0  0  0  0
    6.9241   -4.3816   -4.4819 H   0  0  0  0  0  0  0  0  0  0  0  0
    9.4379   -2.5044   -3.0755 H   0  0  0  0  0  0  0  0  0  0  0  0
    8.5216   -1.8114   -1.7343 H   0  0  0  0  0  0  0  0  0  0  0  0
    5.7668   -2.2413   -3.4017 H   0  0  0  0  0  0  0  0  0  0  0  0
    5.7618   -0.7379   -4.1691 H   0  0  0  0  0  0  0  0  0  0  0  0
    5.7652   -2.4557   -0.8959 H   0  0  0  0  0  0  0  0  0  0  0  0
    4.9716   -1.3802    1.1559 H   0  0  0  0  0  0  0  0  0  0  0  0
    4.3178    3.3906    0.6322 H   0  0  0  0  0  0  0  0  0  0  0  0
    1.2680    5.4460    3.6654 H   0  0  0  0  0  0  0  0  0  0  0  0
    0.5950    3.6954    5.2305 H   0  0  0  0  0  0  0  0  0  0  0  0
    1.2065   -0.9573    6.3452 H   0  0  0  0  0  0  0  0  0  0  0  0
    0.4304   -1.4502    8.6665 H   0  0  0  0  0  0  0  0  0  0  0  0
   -1.0881    1.2755   12.4545 H   0  0  0  0  0  0  0  0  0  0  0  0
   -0.6299    4.7165   11.1225 H   0  0  0  0  0  0  0  0  0  0  0  0
   -0.3409    6.6547   12.5868 H   0  0  0  0  0  0  0  0  0  0  0  0
   -0.9305    4.1588   16.0393 H   0  0  0  0  0  0  0  0  0  0  0  0
   -1.2134    2.2037   14.5827 H   0  0  0  0  0  0  0  0  0  0  0  0
    1.1991    3.2909    7.2188 H   0  0  0  0  0  0  0  0  0  0  0  0
    5.7773    1.4109   -2.7735 H   0  0  0  0  0  0  0  0  0  0  0  0
    8.3703    0.4539   -2.9064 H   0  0  0  0  0  0  0  0  0  0  0  0
   10.0157   -0.8595   -5.1316 H   0  0  0  0  0  0  0  0  0  0  0  0
   10.4846   -0.7035   -3.4219 H   0  0  0  0  0  0  0  0  0  0  0  0
   10.3366    0.7273   -4.4176 H   0  0  0  0  0  0  0  0  0  0  0  0
    7.7858    0.2350   -5.9188 H   0  0  0  0  0  0  0  0  0  0  0  0
    8.3154    1.6947   -5.0657 H   0  0  0  0  0  0  0  0  0  0  0  0
    6.7342    1.0301   -4.7404 H   0  0  0  0  0  0  0  0  0  0  0  0
  1  2  1  0  0  0  0
  1 47  1  0  0  0  0
  1 48  1  0  0  0  0
  1 49  1  0  0  0  0
  2  3  1  0  0  0  0
  2 50  1  0  0  0  0
  2 51  1  0  0  0  0
  3  4  1  0  0  0  0
  3 46  1  0  0  0  0
  4  5  2  0  0  0  0
  4 52  1  0  0  0  0
  5  6  1  0  0  0  0
  5 45  1  0  0  0  0
  6  7  1  0  0  0  0
  6 53  1  0  0  0  0
  6 54  1  0  0  0  0
  7  8  1  0  0  0  0
  7 42  1  0  0  0  0
  8  9  1  0  0  0  0
  8 55  1  0  0  0  0
  8 56  1  0  0  0  0
  9 10  1  0  0  0  0
  9 41  2  0  0  0  0
 10 11  2  0  0  0  0
 10 57  1  0  0  0  0
 11 12  1  0  0  0  0
 11 58  1  0  0  0  0
 12 13  1  0  0  0  0
 12 40  2  0  0  0  0
 13 14  2  0  0  0  0
 13 39  1  0  0  0  0
 14 15  1  0  0  0  0
 14 59  1  0  0  0  0
 15 16  1  0  0  0  0
 15 38  2  0  0  0  0
 16 17  2  0  0  0  0
 17 18  1  0  0  0  0
 17 60  1  0  0  0  0
 18 19  2  0  0  0  0
 18 61  1  0  0  0  0
 19 20  1  0  0  0  0
 19 38  1  0  0  0  0
 20 21  1  0  0  0  0
 21 22  1  0  0  0  0
 21 37  2  0  0  0  0
 22 23  2  0  0  0  0
 22 62  1  0  0  0  0
 23 24  1  0  0  0  0
 23 63  1  0  0  0  0
 24 25  1  0  0  0  0
 24 36  2  0  0  0  0
 25 26  1  0  0  0  0
 26 27  1  0  0  0  0
 26 35  2  0  0  0  0
 27 28  1  0  0  0  0
 27 64  1  0  0  0  0
 28 29  1  0  0  0  0
 28 34  2  0  0  0  0
 29 30  2  0  0  0  0
 29 65  1  0  0  0  0
 30 31  1  0  0  0  0
 30 66  1  0  0  0  0
 31 32  1  0  0  0  0
 31 33  2  0  0  0  0
 33 34  1  0  0  0  0
 33 67  1  0  0  0  0
 34 68  1  0  0  0  0
 35 36  1  0  0  0  0
 36 37  1  0  0  0  0
 37 69  1  0  0  0  0
 38 39  1  0  0  0  0
 40 41  1  0  0  0  0
 41 70  1  0  0  0  0
 42 43  1  0  0  0  0
 42 44  1  0  0  0  0
 42 71  1  0  0  0  0
 43 72  1  0  0  0  0
 43 73  1  0  0  0  0
 43 74  1  0  0  0  0
 44 75  1  0  0  0  0
 44 76  1  0  0  0  0
 44 77  1  0  0  0  0
 45 46  2  0  0  0  0
M  END
$$$$
