CHEMBL2018759
 OpenBabel04072215363D

 53 55  0  0  0  0  0  0  0  0999 V2000
   10.1432   -3.3997   -4.1067 C   0  0  0  0  0  0  0  0  0  0  0  0
   10.2489   -2.1867   -4.8580 O   0  0  0  0  0  0  0  0  0  0  0  0
    9.1754   -1.3401   -4.7679 C   0  0  0  0  0  0  0  0  0  0  0  0
    8.3975   -1.2677   -3.5969 C   0  0  0  0  0  0  0  0  0  0  0  0
    7.2280   -0.5236   -3.5201 C   0  0  0  0  0  0  0  0  0  0  0  0
    6.5002   -0.5699   -2.4029 N   0  0  0  0  0  0  0  0  0  0  0  0
    5.3567    0.1226   -2.4055 C   0  0  0  0  0  0  0  0  0  0  0  0
    4.8746    0.8380   -3.4267 N   0  0  0  0  0  0  0  0  0  0  0  0
    5.6112    0.8750   -4.5531 C   0  0  0  0  0  0  0  0  0  0  0  0
    5.0953    1.5321   -5.7088 N   0  0  0  0  0  0  0  0  0  0  0  0
    3.9977    2.4161   -5.6806 C   0  0  0  0  0  0  0  0  0  0  0  0
    3.9437    3.4391   -4.7414 C   0  0  0  0  0  0  0  0  0  0  0  0
    2.8223    4.2609   -4.6537 C   0  0  0  0  0  0  0  0  0  0  0  0
    1.7052    4.0725   -5.4799 C   0  0  0  0  0  0  0  0  0  0  0  0
    0.5527    4.8740   -5.3061 N   0  0  0  0  0  0  0  0  0  0  0  0
    0.2467    5.5867   -4.1671 C   0  0  0  0  0  0  0  0  0  0  0  0
    0.8769    5.5965   -3.1197 O   0  0  0  0  0  0  0  0  0  0  0  0
   -0.9135    6.2830   -4.3393 O   0  0  0  0  0  0  0  0  0  0  0  0
   -1.3051    7.0423   -3.1739 C   0  0  0  0  0  0  0  0  0  0  0  0
   -0.5096    8.3439   -3.0958 C   0  0  0  0  0  0  0  0  0  0  0  0
   -2.7977    7.3353   -3.2566 C   0  0  0  0  0  0  0  0  0  0  0  0
    1.7648    3.0697   -6.4684 C   0  0  0  0  0  0  0  0  0  0  0  0
    0.6432    2.7594   -7.4213 C   0  0  0  0  0  0  0  0  0  0  0  0
    2.9300    2.2746   -6.5731 C   0  0  0  0  0  0  0  0  0  0  0  0
    6.8475    0.2189   -4.6396 C   0  0  0  0  0  0  0  0  0  0  0  0
    7.6946    0.2670   -5.7641 C   0  0  0  0  0  0  0  0  0  0  0  0
    8.8481   -0.5149   -5.8480 C   0  0  0  0  0  0  0  0  0  0  0  0
    9.4735   -0.3446   -7.0486 O   0  0  0  0  0  0  0  0  0  0  0  0
   10.5487   -1.1913   -7.4098 C   0  0  0  0  0  0  0  0  0  0  0  0
   10.6354   -4.1951   -4.6739 H   0  0  0  0  0  0  0  0  0  0  0  0
    9.1084   -3.7234   -3.9402 H   0  0  0  0  0  0  0  0  0  0  0  0
   10.6632   -3.2841   -3.1507 H   0  0  0  0  0  0  0  0  0  0  0  0
    8.6820   -1.8263   -2.7085 H   0  0  0  0  0  0  0  0  0  0  0  0
    4.7538    0.0874   -1.5046 H   0  0  0  0  0  0  0  0  0  0  0  0
    5.0402    0.8699   -6.4737 H   0  0  0  0  0  0  0  0  0  0  0  0
    4.7660    3.6000   -4.0510 H   0  0  0  0  0  0  0  0  0  0  0  0
    2.8642    5.0518   -3.9124 H   0  0  0  0  0  0  0  0  0  0  0  0
   -0.1739    4.8576   -6.0054 H   0  0  0  0  0  0  0  0  0  0  0  0
   -1.1415    6.4471   -2.2666 H   0  0  0  0  0  0  0  0  0  0  0  0
   -0.6768    8.9598   -3.9848 H   0  0  0  0  0  0  0  0  0  0  0  0
    0.5674    8.1531   -3.0450 H   0  0  0  0  0  0  0  0  0  0  0  0
   -0.7914    8.9215   -2.2089 H   0  0  0  0  0  0  0  0  0  0  0  0
   -3.0387    7.9247   -4.1461 H   0  0  0  0  0  0  0  0  0  0  0  0
   -3.1344    7.8845   -2.3704 H   0  0  0  0  0  0  0  0  0  0  0  0
   -3.3677    6.4034   -3.3220 H   0  0  0  0  0  0  0  0  0  0  0  0
   -0.3341    3.0282   -7.0136 H   0  0  0  0  0  0  0  0  0  0  0  0
    0.6011    1.6808   -7.6189 H   0  0  0  0  0  0  0  0  0  0  0  0
    0.7961    3.2793   -8.3716 H   0  0  0  0  0  0  0  0  0  0  0  0
    2.9766    1.4954   -7.3307 H   0  0  0  0  0  0  0  0  0  0  0  0
    7.4487    0.9161   -6.6035 H   0  0  0  0  0  0  0  0  0  0  0  0
   10.7423   -1.0200   -8.4745 H   0  0  0  0  0  0  0  0  0  0  0  0
   10.2933   -2.2484   -7.3011 H   0  0  0  0  0  0  0  0  0  0  0  0
   11.4565   -0.9248   -6.8614 H   0  0  0  0  0  0  0  0  0  0  0  0
  1  2  1  0  0  0  0
  1 30  1  0  0  0  0
  1 31  1  0  0  0  0
  1 32  1  0  0  0  0
  2  3  1  0  0  0  0
  3  4  1  0  0  0  0
  3 27  2  0  0  0  0
  4  5  2  0  0  0  0
  4 33  1  0  0  0  0
  5  6  1  0  0  0  0
  5 25  1  0  0  0  0
  6  7  2  0  0  0  0
  7  8  1  0  0  0  0
  7 34  1  0  0  0  0
  8  9  2  0  0  0  0
  9 10  1  0  0  0  0
  9 25  1  0  0  0  0
 10 11  1  0  0  0  0
 10 35  1  0  0  0  0
 11 12  1  0  0  0  0
 11 24  2  0  0  0  0
 12 13  2  0  0  0  0
 12 36  1  0  0  0  0
 13 14  1  0  0  0  0
 13 37  1  0  0  0  0
 14 15  1  0  0  0  0
 14 22  2  0  0  0  0
 15 16  1  0  0  0  0
 15 38  1  0  0  0  0
 16 17  2  0  0  0  0
 16 18  1  0  0  0  0
 18 19  1  0  0  0  0
 19 20  1  0  0  0  0
 19 21  1  0  0  0  0
 19 39  1  0  0  0  0
 20 40  1  0  0  0  0
 20 41  1  0  0  0  0
 20 42  1  0  0  0  0
 21 43  1  0  0  0  0
 21 44  1  0  0  0  0
 21 45  1  0  0  0  0
 22 23  1  0  0  0  0
 22 24  1  0  0  0  0
 23 46  1  0  0  0  0
 23 47  1  0  0  0  0
 23 48  1  0  0  0  0
 24 49  1  0  0  0  0
 25 26  2  0  0  0  0
 26 27  1  0  0  0  0
 26 50  1  0  0  0  0
 27 28  1  0  0  0  0
 28 29  1  0  0  0  0
 29 51  1  0  0  0  0
 29 52  1  0  0  0  0
 29 53  1  0  0  0  0
M  END
$$$$
