CHEMBL1289925
 OpenBabel04072215363D

 47 51  0  0  0  0  0  0  0  0999 V2000
   10.8258    7.2502   -5.4368 C   0  0  0  0  0  0  0  0  0  0  0  0
   10.1978    6.3332   -4.5229 N   0  0  0  0  0  0  0  0  0  0  0  0
    9.5364    5.2096   -4.9797 C   0  0  0  0  0  0  0  0  0  0  0  0
    9.4313    4.9378   -6.1687 O   0  0  0  0  0  0  0  0  0  0  0  0
    9.0047    4.3488   -3.9200 C   0  0  0  0  0  0  0  0  0  0  0  0
    8.5515    4.8292   -2.7023 C   0  0  0  0  0  0  0  0  0  0  0  0
    8.0079    3.6024   -1.6586 S   0  0  0  0  0  0  0  0  0  0  0  0
    8.3474    2.3742   -2.8111 C   0  0  0  0  0  0  0  0  0  0  0  0
    8.1550    0.9909   -2.6394 C   0  0  0  0  0  0  0  0  0  0  0  0
    8.4852    0.1207   -3.6798 C   0  0  0  0  0  0  0  0  0  0  0  0
    8.2985   -1.2152   -3.4009 O   0  0  0  0  0  0  0  0  0  0  0  0
    8.0539   -2.1023   -4.4241 C   0  0  0  0  0  0  0  0  0  0  0  0
    7.1981   -1.8228   -5.4880 C   0  0  0  0  0  0  0  0  0  0  0  0
    7.0147   -2.7824   -6.4630 C   0  0  0  0  0  0  0  0  0  0  0  0
    7.5701   -4.0085   -6.4641 N   0  0  0  0  0  0  0  0  0  0  0  0
    8.3489   -4.3035   -5.3878 C   0  0  0  0  0  0  0  0  0  0  0  0
    8.9964   -5.5533   -5.1702 C   0  0  0  0  0  0  0  0  0  0  0  0
    9.7127   -5.5894   -3.9917 C   0  0  0  0  0  0  0  0  0  0  0  0
   10.4953   -6.6840   -3.4403 C   0  0  0  0  0  0  0  0  0  0  0  0
   10.6247   -6.7694   -2.1366 N   0  0  0  0  0  0  0  0  0  0  0  0
   11.5228   -7.9179   -1.8867 C   0  0  0  0  0  0  0  0  0  0  0  0
   11.7651   -8.5974   -3.2307 C   0  0  0  0  0  0  0  0  0  0  0  0
   11.1238   -7.6878   -4.1589 N   0  0  0  0  0  0  0  0  0  0  0  0
   11.7510   -7.4633   -5.4443 C   0  0  0  0  0  0  0  0  0  0  0  0
    9.6021   -4.0988   -3.1563 S   0  0  0  0  0  0  0  0  0  0  0  0
    8.6024   -3.3940   -4.3630 C   0  0  0  0  0  0  0  0  0  0  0  0
    9.0269    0.6175   -4.8590 C   0  0  0  0  0  0  0  0  0  0  0  0
    9.1907    1.9962   -5.0339 C   0  0  0  0  0  0  0  0  0  0  0  0
    8.8629    2.9088   -3.9966 C   0  0  0  0  0  0  0  0  0  0  0  0
   11.3396    8.0206   -4.8580 H   0  0  0  0  0  0  0  0  0  0  0  0
   10.0594    7.7072   -6.0686 H   0  0  0  0  0  0  0  0  0  0  0  0
   11.5426    6.7113   -6.0627 H   0  0  0  0  0  0  0  0  0  0  0  0
   10.4293    6.3979   -3.5419 H   0  0  0  0  0  0  0  0  0  0  0  0
    8.5013    5.8571   -2.3710 H   0  0  0  0  0  0  0  0  0  0  0  0
    7.7611    0.6002   -1.7040 H   0  0  0  0  0  0  0  0  0  0  0  0
    6.6886   -0.8684   -5.5670 H   0  0  0  0  0  0  0  0  0  0  0  0
    6.3762   -2.5736   -7.3183 H   0  0  0  0  0  0  0  0  0  0  0  0
    8.9095   -6.3917   -5.8480 H   0  0  0  0  0  0  0  0  0  0  0  0
   11.0746   -8.6076   -1.1647 H   0  0  0  0  0  0  0  0  0  0  0  0
   12.4629   -7.5456   -1.4648 H   0  0  0  0  0  0  0  0  0  0  0  0
   11.2748   -9.5759   -3.2695 H   0  0  0  0  0  0  0  0  0  0  0  0
   12.8356   -8.7306   -3.4181 H   0  0  0  0  0  0  0  0  0  0  0  0
   12.4065   -8.2976   -5.7171 H   0  0  0  0  0  0  0  0  0  0  0  0
   12.3553   -6.5499   -5.4324 H   0  0  0  0  0  0  0  0  0  0  0  0
   10.9987   -7.3788   -6.2329 H   0  0  0  0  0  0  0  0  0  0  0  0
    9.3365   -0.0447   -5.6628 H   0  0  0  0  0  0  0  0  0  0  0  0
    9.5911    2.3670   -5.9765 H   0  0  0  0  0  0  0  0  0  0  0  0
  1  2  1  0  0  0  0
  1 30  1  0  0  0  0
  1 31  1  0  0  0  0
  1 32  1  0  0  0  0
  2  3  1  0  0  0  0
  2 33  1  0  0  0  0
  3  4  2  0  0  0  0
  3  5  1  0  0  0  0
  5  6  2  0  0  0  0
  5 29  1  0  0  0  0
  6  7  1  0  0  0  0
  6 34  1  0  0  0  0
  7  8  1  0  0  0  0
  8  9  1  0  0  0  0
  8 29  2  0  0  0  0
  9 10  2  0  0  0  0
  9 35  1  0  0  0  0
 10 11  1  0  0  0  0
 10 27  1  0  0  0  0
 11 12  1  0  0  0  0
 12 13  1  0  0  0  0
 12 26  2  0  0  0  0
 13 14  2  0  0  0  0
 13 36  1  0  0  0  0
 14 15  1  0  0  0  0
 14 37  1  0  0  0  0
 15 16  2  0  0  0  0
 16 17  1  0  0  0  0
 16 26  1  0  0  0  0
 17 18  2  0  0  0  0
 17 38  1  0  0  0  0
 18 19  1  0  0  0  0
 18 25  1  0  0  0  0
 19 20  2  0  0  0  0
 19 23  1  0  0  0  0
 20 21  1  0  0  0  0
 21 22  1  0  0  0  0
 21 39  1  0  0  0  0
 21 40  1  0  0  0  0
 22 23  1  0  0  0  0
 22 41  1  0  0  0  0
 22 42  1  0  0  0  0
 23 24  1  0  0  0  0
 24 43  1  0  0  0  0
 24 44  1  0  0  0  0
 24 45  1  0  0  0  0
 25 26  1  0  0  0  0
 27 28  2  0  0  0  0
 27 46  1  0  0  0  0
 28 29  1  0  0  0  0
 28 47  1  0  0  0  0
M  END
$$$$
