CHEMBL196841
 OpenBabel04072215363D

 53 57  0  0  0  0  0  0  0  0999 V2000
    8.7812   -0.7112   -1.9922 C   0  0  0  0  0  0  0  0  0  0  0  0
    7.6297    0.4805   -1.3245 S   0  0  0  0  0  0  0  0  0  0  0  0
    8.2120    1.0915   -0.1531 O   0  0  0  0  0  0  0  0  0  0  0  0
    7.1436    1.2795   -2.4235 O   0  0  0  0  0  0  0  0  0  0  0  0
    6.3440   -0.5039   -0.8788 N   0  0  0  0  0  0  0  0  0  0  0  0
    6.3061   -1.0133    0.4533 C   0  0  0  0  0  0  0  0  0  0  0  0
    5.6773   -0.3128    1.4776 C   0  0  0  0  0  0  0  0  0  0  0  0
    5.5933   -0.8848    2.7483 C   0  0  0  0  0  0  0  0  0  0  0  0
    6.1107   -2.1653    2.9817 C   0  0  0  0  0  0  0  0  0  0  0  0
    6.7493   -2.8777    1.9574 C   0  0  0  0  0  0  0  0  0  0  0  0
    7.1905   -4.2628    2.1579 C   0  0  0  0  0  0  0  0  0  0  0  0
    7.6361   -4.5456    3.4168 O   0  0  0  0  0  0  0  0  0  0  0  0
    8.0580   -5.8364    3.4317 C   0  0  0  0  0  0  0  0  0  0  0  0
    8.5970   -6.3981    4.5225 N   0  0  0  0  0  0  0  0  0  0  0  0
    8.9606   -7.6639    4.2935 C   0  0  0  0  0  0  0  0  0  0  0  0
    8.8263   -8.3628    3.1539 N   0  0  0  0  0  0  0  0  0  0  0  0
    8.2442   -7.7738    2.0894 C   0  0  0  0  0  0  0  0  0  0  0  0
    8.0923   -8.5814    0.9826 N   0  0  0  0  0  0  0  0  0  0  0  0
    7.8556   -6.4284    2.1941 C   0  0  0  0  0  0  0  0  0  0  0  0
    7.2880   -5.4018    1.3620 C   0  0  0  0  0  0  0  0  0  0  0  0
    6.9461   -5.4456   -0.0516 C   0  0  0  0  0  0  0  0  0  0  0  0
    5.7673   -4.8787   -0.5484 C   0  0  0  0  0  0  0  0  0  0  0  0
    5.5207   -4.8418   -1.9262 C   0  0  0  0  0  0  0  0  0  0  0  0
    6.3997   -5.4477   -2.8351 C   0  0  0  0  0  0  0  0  0  0  0  0
    6.1413   -5.4572   -4.2878 C   0  0  0  0  0  0  0  0  0  0  0  0
    5.5793   -4.3526   -4.9470 C   0  0  0  0  0  0  0  0  0  0  0  0
    5.3767   -4.3636   -6.3275 C   0  0  0  0  0  0  0  0  0  0  0  0
    5.7434   -5.4776   -7.0811 C   0  0  0  0  0  0  0  0  0  0  0  0
    6.2983   -6.5832   -6.4521 C   0  0  0  0  0  0  0  0  0  0  0  0
    6.4857   -6.5780   -5.0699 C   0  0  0  0  0  0  0  0  0  0  0  0
    7.5599   -6.0448   -2.3173 C   0  0  0  0  0  0  0  0  0  0  0  0
    7.8482   -6.0091   -0.9544 C   0  0  0  0  0  0  0  0  0  0  0  0
    6.8900   -2.2531    0.7093 C   0  0  0  0  0  0  0  0  0  0  0  0
    9.6682   -0.1680   -2.3215 H   0  0  0  0  0  0  0  0  0  0  0  0
    8.3149   -1.2153   -2.8399 H   0  0  0  0  0  0  0  0  0  0  0  0
    9.0583   -1.4179   -1.2141 H   0  0  0  0  0  0  0  0  0  0  0  0
    5.4632   -0.1121   -1.2277 H   0  0  0  0  0  0  0  0  0  0  0  0
    5.2562    0.6727    1.3012 H   0  0  0  0  0  0  0  0  0  0  0  0
    5.1072   -0.3432    3.5563 H   0  0  0  0  0  0  0  0  0  0  0  0
    5.9942   -2.6093    3.9694 H   0  0  0  0  0  0  0  0  0  0  0  0
    9.4254   -8.1888    5.1196 H   0  0  0  0  0  0  0  0  0  0  0  0
    8.6465   -9.4243    1.0022 H   0  0  0  0  0  0  0  0  0  0  0  0
    7.7811   -8.2169    0.0980 H   0  0  0  0  0  0  0  0  0  0  0  0
    5.0475   -4.4096    0.1194 H   0  0  0  0  0  0  0  0  0  0  0  0
    4.6226   -4.3338   -2.2742 H   0  0  0  0  0  0  0  0  0  0  0  0
    5.3089   -3.4554   -4.3958 H   0  0  0  0  0  0  0  0  0  0  0  0
    4.9376   -3.4983   -6.8209 H   0  0  0  0  0  0  0  0  0  0  0  0
    5.5959   -5.4796   -8.1580 H   0  0  0  0  0  0  0  0  0  0  0  0
    6.5932   -7.4546   -7.0313 H   0  0  0  0  0  0  0  0  0  0  0  0
    6.9031   -7.4659   -4.6066 H   0  0  0  0  0  0  0  0  0  0  0  0
    8.2784   -6.5249   -2.9777 H   0  0  0  0  0  0  0  0  0  0  0  0
    8.7974   -6.4210   -0.6165 H   0  0  0  0  0  0  0  0  0  0  0  0
    7.4047   -2.7591   -0.1000 H   0  0  0  0  0  0  0  0  0  0  0  0
  1  2  1  0  0  0  0
  1 34  1  0  0  0  0
  1 35  1  0  0  0  0
  1 36  1  0  0  0  0
  2  3  2  0  0  0  0
  2  4  2  0  0  0  0
  2  5  1  0  0  0  0
  5  6  1  0  0  0  0
  5 37  1  0  0  0  0
  6  7  1  0  0  0  0
  6 33  2  0  0  0  0
  7  8  2  0  0  0  0
  7 38  1  0  0  0  0
  8  9  1  0  0  0  0
  8 39  1  0  0  0  0
  9 10  2  0  0  0  0
  9 40  1  0  0  0  0
 10 11  1  0  0  0  0
 10 33  1  0  0  0  0
 11 12  1  0  0  0  0
 11 20  2  0  0  0  0
 12 13  1  0  0  0  0
 13 14  1  0  0  0  0
 13 19  2  0  0  0  0
 14 15  2  0  0  0  0
 15 16  1  0  0  0  0
 15 41  1  0  0  0  0
 16 17  2  0  0  0  0
 17 18  1  0  0  0  0
 17 19  1  0  0  0  0
 18 42  1  0  0  0  0
 18 43  1  0  0  0  0
 19 20  1  0  0  0  0
 20 21  1  0  0  0  0
 21 22  1  0  0  0  0
 21 32  2  0  0  0  0
 22 23  2  0  0  0  0
 22 44  1  0  0  0  0
 23 24  1  0  0  0  0
 23 45  1  0  0  0  0
 24 25  1  0  0  0  0
 24 31  2  0  0  0  0
 25 26  1  0  0  0  0
 25 30  2  0  0  0  0
 26 27  2  0  0  0  0
 26 46  1  0  0  0  0
 27 28  1  0  0  0  0
 27 47  1  0  0  0  0
 28 29  2  0  0  0  0
 28 48  1  0  0  0  0
 29 30  1  0  0  0  0
 29 49  1  0  0  0  0
 30 50  1  0  0  0  0
 31 32  1  0  0  0  0
 31 51  1  0  0  0  0
 32 52  1  0  0  0  0
 33 53  1  0  0  0  0
M  END
$$$$
