CHEMBL3977137
 OpenBabel04072215373D

 54 57  0  0  0  0  0  0  0  0999 V2000
    5.8392   -0.7229    4.0943 C   0  0  0  0  0  0  0  0  0  0  0  0
    4.3647   -0.7730    4.4669 C   0  0  0  0  0  0  0  0  0  0  0  0
    4.2606   -1.6064    5.5490 F   0  0  0  0  0  0  0  0  0  0  0  0
    4.0010    0.4487    4.9481 F   0  0  0  0  0  0  0  0  0  0  0  0
    3.5288   -1.2516    3.2994 C   0  0  0  0  0  0  0  0  0  0  0  0
    3.3298   -2.6391    3.1618 C   0  0  0  0  0  0  0  0  0  0  0  0
    2.5789   -3.1947    2.1172 C   0  0  0  0  0  0  0  0  0  0  0  0
    2.3515   -4.5904    2.0012 N   0  0  0  0  0  0  0  0  0  0  0  0
    2.4670   -5.4734    3.0627 C   0  0  0  0  0  0  0  0  0  0  0  0
    2.6697   -5.1121    4.2157 O   0  0  0  0  0  0  0  0  0  0  0  0
    2.3359   -6.7983    2.6852 N   0  0  0  0  0  0  0  0  0  0  0  0
    2.4297   -7.8933    3.5886 C   0  0  0  0  0  0  0  0  0  0  0  0
    2.3491   -7.7482    4.9763 C   0  0  0  0  0  0  0  0  0  0  0  0
    2.5603   -8.8351    5.8187 C   0  0  0  0  0  0  0  0  0  0  0  0
    2.5042   -8.6574    7.1456 F   0  0  0  0  0  0  0  0  0  0  0  0
    2.8306  -10.0929    5.3078 C   0  0  0  0  0  0  0  0  0  0  0  0
    2.8732  -10.2641    3.9276 C   0  0  0  0  0  0  0  0  0  0  0  0
    3.0779  -11.5526    3.4819 O   0  0  0  0  0  0  0  0  0  0  0  0
    3.9353  -11.7493    2.4050 C   0  0  0  0  0  0  0  0  0  0  0  0
    3.8309  -12.9613    1.7577 C   0  0  0  0  0  0  0  0  0  0  0  0
    4.6878  -13.1450    0.6948 C   0  0  0  0  0  0  0  0  0  0  0  0
    4.6461  -14.3694    0.0095 N   0  0  0  0  0  0  0  0  0  0  0  0
    5.4745  -14.6977   -1.0428 C   0  0  0  0  0  0  0  0  0  0  0  0
    6.3171  -13.9818   -1.5691 O   0  0  0  0  0  0  0  0  0  0  0  0
    5.3202  -16.0707   -1.6054 C   0  0  0  0  0  0  0  0  0  0  0  0
    4.0337  -16.4402   -2.3059 C   0  0  0  0  0  0  0  0  0  0  0  0
    4.4526  -17.1787   -1.0669 C   0  0  0  0  0  0  0  0  0  0  0  0
    5.5532  -12.1992    0.3138 N   0  0  0  0  0  0  0  0  0  0  0  0
    5.5890  -11.0702    1.0223 C   0  0  0  0  0  0  0  0  0  0  0  0
    4.8192  -10.7933    2.0731 N   0  0  0  0  0  0  0  0  0  0  0  0
    2.6401   -9.1760    3.0673 C   0  0  0  0  0  0  0  0  0  0  0  0
    2.0499   -2.3389    1.1547 C   0  0  0  0  0  0  0  0  0  0  0  0
    2.2410   -0.9569    1.2665 C   0  0  0  0  0  0  0  0  0  0  0  0
    2.9769   -0.4137    2.3288 C   0  0  0  0  0  0  0  0  0  0  0  0
    3.1945    1.2975    2.3456 Cl  0  0  0  0  0  0  0  0  0  0  0  0
    6.4255   -0.3406    4.9361 H   0  0  0  0  0  0  0  0  0  0  0  0
    6.0184   -0.0671    3.2372 H   0  0  0  0  0  0  0  0  0  0  0  0
    6.2204   -1.7224    3.8566 H   0  0  0  0  0  0  0  0  0  0  0  0
    3.7989   -3.2791    3.9072 H   0  0  0  0  0  0  0  0  0  0  0  0
    1.8408   -4.9138    1.1930 H   0  0  0  0  0  0  0  0  0  0  0  0
    2.4555   -7.0075    1.7035 H   0  0  0  0  0  0  0  0  0  0  0  0
    2.1295   -6.8014    5.4576 H   0  0  0  0  0  0  0  0  0  0  0  0
    3.0070  -10.9174    5.9900 H   0  0  0  0  0  0  0  0  0  0  0  0
    3.1182  -13.7056    2.0823 H   0  0  0  0  0  0  0  0  0  0  0  0
    3.9777  -15.0546    0.3205 H   0  0  0  0  0  0  0  0  0  0  0  0
    6.2385  -16.4037   -2.0878 H   0  0  0  0  0  0  0  0  0  0  0  0
    4.1206  -16.9392   -3.2648 H   0  0  0  0  0  0  0  0  0  0  0  0
    3.1950  -15.7563   -2.2412 H   0  0  0  0  0  0  0  0  0  0  0  0
    4.8188  -18.1944   -1.1886 H   0  0  0  0  0  0  0  0  0  0  0  0
    3.8711  -17.0474   -0.1660 H   0  0  0  0  0  0  0  0  0  0  0  0
    6.2994  -10.3145    0.7079 H   0  0  0  0  0  0  0  0  0  0  0  0
    2.6647   -9.3294    1.9944 H   0  0  0  0  0  0  0  0  0  0  0  0
    1.4665   -2.7217    0.3210 H   0  0  0  0  0  0  0  0  0  0  0  0
    1.8085   -0.2981    0.5160 H   0  0  0  0  0  0  0  0  0  0  0  0
  1  2  1  0  0  0  0
  1 36  1  0  0  0  0
  1 37  1  0  0  0  0
  1 38  1  0  0  0  0
  2  3  1  0  0  0  0
  2  4  1  0  0  0  0
  2  5  1  0  0  0  0
  5  6  1  0  0  0  0
  5 34  2  0  0  0  0
  6  7  2  0  0  0  0
  6 39  1  0  0  0  0
  7  8  1  0  0  0  0
  7 32  1  0  0  0  0
  8  9  1  0  0  0  0
  8 40  1  0  0  0  0
  9 10  2  0  0  0  0
  9 11  1  0  0  0  0
 11 12  1  0  0  0  0
 11 41  1  0  0  0  0
 12 13  1  0  0  0  0
 12 31  2  0  0  0  0
 13 14  2  0  0  0  0
 13 42  1  0  0  0  0
 14 15  1  0  0  0  0
 14 16  1  0  0  0  0
 16 17  2  0  0  0  0
 16 43  1  0  0  0  0
 17 18  1  0  0  0  0
 17 31  1  0  0  0  0
 18 19  1  0  0  0  0
 19 20  1  0  0  0  0
 19 30  2  0  0  0  0
 20 21  2  0  0  0  0
 20 44  1  0  0  0  0
 21 22  1  0  0  0  0
 21 28  1  0  0  0  0
 22 23  1  0  0  0  0
 22 45  1  0  0  0  0
 23 24  2  0  0  0  0
 23 25  1  0  0  0  0
 25 26  1  0  0  0  0
 25 27  1  0  0  0  0
 25 46  1  0  0  0  0
 26 27  1  0  0  0  0
 26 47  1  0  0  0  0
 26 48  1  0  0  0  0
 27 49  1  0  0  0  0
 27 50  1  0  0  0  0
 28 29  2  0  0  0  0
 29 30  1  0  0  0  0
 29 51  1  0  0  0  0
 31 52  1  0  0  0  0
 32 33  2  0  0  0  0
 32 53  1  0  0  0  0
 33 34  1  0  0  0  0
 33 54  1  0  0  0  0
 34 35  1  0  0  0  0
M  END
$$$$
