CHEMBL3397929
 OpenBabel04072215363D

 59 62  0  0  0  0  0  0  0  0999 V2000
    1.1225   -0.8107   -0.0870 O   0  0  0  0  0  0  0  0  0  0  0  0
    2.2613   -0.3710    0.0264 C   0  0  0  0  0  0  0  0  0  0  0  0
    2.8930    0.0190    1.2008 N   0  0  0  0  0  0  0  0  0  0  0  0
    2.2935   -0.0568    2.4755 C   0  0  0  0  0  0  0  0  0  0  0  0
    1.1880   -0.8681    2.7070 C   0  0  0  0  0  0  0  0  0  0  0  0
    0.5638   -0.8910    3.9519 C   0  0  0  0  0  0  0  0  0  0  0  0
    1.0326   -0.0911    4.9928 C   0  0  0  0  0  0  0  0  0  0  0  0
    0.4462    0.0001    6.2354 O   0  0  0  0  0  0  0  0  0  0  0  0
   -0.2220   -1.2053    6.6377 C   0  0  0  0  0  0  0  0  0  0  0  0
   -0.8556   -1.0884    8.0419 C   0  0  0  0  0  0  0  0  0  0  0  0
   -1.5647   -2.3185    8.4806 N   0  0  0  0  0  0  0  0  0  0  0  0
   -0.6482   -3.4669    8.5764 C   0  0  0  0  0  0  0  0  0  0  0  0
   -1.3789   -4.7439    8.9933 C   0  0  0  0  0  0  0  0  0  0  0  0
   -2.1257   -4.5499   10.3060 C   0  0  0  0  0  0  0  0  0  0  0  0
   -3.0432   -3.3375   10.2117 C   0  0  0  0  0  0  0  0  0  0  0  0
   -2.2642   -2.0988    9.7602 C   0  0  0  0  0  0  0  0  0  0  0  0
    2.1565    0.7066    4.7745 C   0  0  0  0  0  0  0  0  0  0  0  0
    2.8011    0.7106    3.5262 C   0  0  0  0  0  0  0  0  0  0  0  0
    3.0204   -0.1522   -1.2176 C   0  0  0  0  0  0  0  0  0  0  0  0
    2.3085    0.1902   -2.3763 C   0  0  0  0  0  0  0  0  0  0  0  0
    2.9879    0.3954   -3.5677 C   0  0  0  0  0  0  0  0  0  0  0  0
    4.3748    0.2781   -3.5994 C   0  0  0  0  0  0  0  0  0  0  0  0
    5.1116   -0.0342   -2.4376 C   0  0  0  0  0  0  0  0  0  0  0  0
    6.5779    0.0262   -2.4328 C   0  0  0  0  0  0  0  0  0  0  0  0
    7.2324    0.9519   -3.2641 C   0  0  0  0  0  0  0  0  0  0  0  0
    8.6091    1.1373   -3.1965 C   0  0  0  0  0  0  0  0  0  0  0  0
    9.3697    0.3975   -2.2767 C   0  0  0  0  0  0  0  0  0  0  0  0
    8.7294   -0.5215   -1.4641 C   0  0  0  0  0  0  0  0  0  0  0  0
    9.4300   -1.2288   -0.5310 O   0  0  0  0  0  0  0  0  0  0  0  0
    7.3593   -0.7324   -1.5453 C   0  0  0  0  0  0  0  0  0  0  0  0
    4.4048   -0.2853   -1.2547 C   0  0  0  0  0  0  0  0  0  0  0  0
    3.7480    0.5541    1.1255 H   0  0  0  0  0  0  0  0  0  0  0  0
    0.7826   -1.5122    1.9325 H   0  0  0  0  0  0  0  0  0  0  0  0
   -0.2956   -1.5457    4.0442 H   0  0  0  0  0  0  0  0  0  0  0  0
    0.5367   -1.9950    6.6531 H   0  0  0  0  0  0  0  0  0  0  0  0
   -1.0162   -1.4466    5.9267 H   0  0  0  0  0  0  0  0  0  0  0  0
   -1.5548   -0.2393    8.0357 H   0  0  0  0  0  0  0  0  0  0  0  0
   -0.0768   -0.8264    8.7632 H   0  0  0  0  0  0  0  0  0  0  0  0
    0.1664   -3.2685    9.2836 H   0  0  0  0  0  0  0  0  0  0  0  0
   -0.1900   -3.6623    7.6005 H   0  0  0  0  0  0  0  0  0  0  0  0
   -0.6583   -5.5626    9.0962 H   0  0  0  0  0  0  0  0  0  0  0  0
   -2.0870   -5.0371    8.2079 H   0  0  0  0  0  0  0  0  0  0  0  0
   -1.4056   -4.4030   11.1216 H   0  0  0  0  0  0  0  0  0  0  0  0
   -2.7066   -5.4459   10.5481 H   0  0  0  0  0  0  0  0  0  0  0  0
   -3.5038   -3.1481   11.1887 H   0  0  0  0  0  0  0  0  0  0  0  0
   -3.8576   -3.5453    9.5060 H   0  0  0  0  0  0  0  0  0  0  0  0
   -1.5580   -1.8370   10.5597 H   0  0  0  0  0  0  0  0  0  0  0  0
   -2.9713   -1.2672    9.6585 H   0  0  0  0  0  0  0  0  0  0  0  0
    2.5331    1.3317    5.5800 H   0  0  0  0  0  0  0  0  0  0  0  0
    3.6659    1.3513    3.3870 H   0  0  0  0  0  0  0  0  0  0  0  0
    1.2277    0.2978   -2.3388 H   0  0  0  0  0  0  0  0  0  0  0  0
    2.4418    0.6612   -4.4692 H   0  0  0  0  0  0  0  0  0  0  0  0
    4.8876    0.4603   -4.5406 H   0  0  0  0  0  0  0  0  0  0  0  0
    6.6625    1.5685   -3.9515 H   0  0  0  0  0  0  0  0  0  0  0  0
    9.0868    1.8718   -3.8418 H   0  0  0  0  0  0  0  0  0  0  0  0
   10.4331    0.5717   -2.2283 H   0  0  0  0  0  0  0  0  0  0  0  0
   10.3162   -0.8363   -0.4536 H   0  0  0  0  0  0  0  0  0  0  0  0
    6.9040   -1.4719   -0.8899 H   0  0  0  0  0  0  0  0  0  0  0  0
    4.9437   -0.5669   -0.3522 H   0  0  0  0  0  0  0  0  0  0  0  0
  1  2  2  0  0  0  0
  2  3  1  0  0  0  0
  2 19  1  0  0  0  0
  3  4  1  0  0  0  0
  3 32  1  0  0  0  0
  4  5  1  0  0  0  0
  4 18  2  0  0  0  0
  5  6  2  0  0  0  0
  5 33  1  0  0  0  0
  6  7  1  0  0  0  0
  6 34  1  0  0  0  0
  7  8  1  0  0  0  0
  7 17  2  0  0  0  0
  8  9  1  0  0  0  0
  9 10  1  0  0  0  0
  9 35  1  0  0  0  0
  9 36  1  0  0  0  0
 10 11  1  0  0  0  0
 10 37  1  0  0  0  0
 10 38  1  0  0  0  0
 11 12  1  0  0  0  0
 11 16  1  0  0  0  0
 12 13  1  0  0  0  0
 12 39  1  0  0  0  0
 12 40  1  0  0  0  0
 13 14  1  0  0  0  0
 13 41  1  0  0  0  0
 13 42  1  0  0  0  0
 14 15  1  0  0  0  0
 14 43  1  0  0  0  0
 14 44  1  0  0  0  0
 15 16  1  0  0  0  0
 15 45  1  0  0  0  0
 15 46  1  0  0  0  0
 16 47  1  0  0  0  0
 16 48  1  0  0  0  0
 17 18  1  0  0  0  0
 17 49  1  0  0  0  0
 18 50  1  0  0  0  0
 19 20  1  0  0  0  0
 19 31  2  0  0  0  0
 20 21  2  0  0  0  0
 20 51  1  0  0  0  0
 21 22  1  0  0  0  0
 21 52  1  0  0  0  0
 22 23  2  0  0  0  0
 22 53  1  0  0  0  0
 23 24  1  0  0  0  0
 23 31  1  0  0  0  0
 24 25  1  0  0  0  0
 24 30  2  0  0  0  0
 25 26  2  0  0  0  0
 25 54  1  0  0  0  0
 26 27  1  0  0  0  0
 26 55  1  0  0  0  0
 27 28  2  0  0  0  0
 27 56  1  0  0  0  0
 28 29  1  0  0  0  0
 28 30  1  0  0  0  0
 29 57  1  0  0  0  0
 30 58  1  0  0  0  0
 31 59  1  0  0  0  0
M  END
$$$$
