CHEMBL185140
 OpenBabel04072215363D

 48 51  0  0  0  0  0  0  0  0999 V2000
    0.9946   -0.2588   -0.1477 O   0  0  0  0  0  0  0  0  0  0  0  0
    2.2122   -0.1031   -0.1082 C   0  0  0  0  0  0  0  0  0  0  0  0
    2.9137    0.9279   -0.9711 C   0  0  0  0  0  0  0  0  0  0  0  0
    1.9236    1.6646   -1.8742 C   0  0  0  0  0  0  0  0  0  0  0  0
    2.5815    2.6775   -2.7626 C   0  0  0  0  0  0  0  0  0  0  0  0
    2.3561    4.0392   -2.7460 C   0  0  0  0  0  0  0  0  0  0  0  0
    3.1468    4.6299   -3.7019 N   0  0  0  0  0  0  0  0  0  0  0  0
    3.2305    6.0726   -3.9229 C   0  0  0  0  0  0  0  0  0  0  0  0
    2.3019    6.5279   -5.0238 C   0  0  0  0  0  0  0  0  0  0  0  0
    0.9106    6.3858   -4.8946 C   0  0  0  0  0  0  0  0  0  0  0  0
    0.0596    6.7129   -5.9522 C   0  0  0  0  0  0  0  0  0  0  0  0
    0.5914    7.2103   -7.1381 C   0  0  0  0  0  0  0  0  0  0  0  0
   -0.4497    7.5513   -8.4644 Cl  0  0  0  0  0  0  0  0  0  0  0  0
    1.9631    7.4179   -7.2620 C   0  0  0  0  0  0  0  0  0  0  0  0
    2.8160    7.0809   -6.2071 C   0  0  0  0  0  0  0  0  0  0  0  0
    3.8799    3.6675   -4.3635 C   0  0  0  0  0  0  0  0  0  0  0  0
    4.8043    3.7695   -5.4190 C   0  0  0  0  0  0  0  0  0  0  0  0
    5.4023    2.5991   -5.8930 C   0  0  0  0  0  0  0  0  0  0  0  0
    5.0792    1.3615   -5.3467 C   0  0  0  0  0  0  0  0  0  0  0  0
    4.1505    1.2637   -4.3100 C   0  0  0  0  0  0  0  0  0  0  0  0
    3.5363    2.4318   -3.8021 C   0  0  0  0  0  0  0  0  0  0  0  0
    3.0935   -0.8049    0.7032 N   0  0  0  0  0  0  0  0  0  0  0  0
    2.7480   -1.8624    1.5772 C   0  0  0  0  0  0  0  0  0  0  0  0
    1.5355   -2.5434    1.5122 C   0  0  0  0  0  0  0  0  0  0  0  0
    1.2747   -3.5278    2.4514 C   0  0  0  0  0  0  0  0  0  0  0  0
    2.1359   -3.8829    3.4266 N   0  0  0  0  0  0  0  0  0  0  0  0
    3.3168   -3.2329    3.4514 C   0  0  0  0  0  0  0  0  0  0  0  0
    3.6726   -2.2373    2.5519 C   0  0  0  0  0  0  0  0  0  0  0  0
    3.6661    0.4034   -1.5687 H   0  0  0  0  0  0  0  0  0  0  0  0
    3.4364    1.6409   -0.3215 H   0  0  0  0  0  0  0  0  0  0  0  0
    1.1717    2.1678   -1.2499 H   0  0  0  0  0  0  0  0  0  0  0  0
    1.3694    0.9508   -2.4971 H   0  0  0  0  0  0  0  0  0  0  0  0
    1.6884    4.6322   -2.1334 H   0  0  0  0  0  0  0  0  0  0  0  0
    4.2762    6.3091   -4.1519 H   0  0  0  0  0  0  0  0  0  0  0  0
    2.9864    6.5787   -2.9811 H   0  0  0  0  0  0  0  0  0  0  0  0
    0.4781    5.9871   -3.9794 H   0  0  0  0  0  0  0  0  0  0  0  0
   -1.0107    6.5562   -5.8491 H   0  0  0  0  0  0  0  0  0  0  0  0
    2.3758    7.8216   -8.1827 H   0  0  0  0  0  0  0  0  0  0  0  0
    3.8864    7.2338   -6.3287 H   0  0  0  0  0  0  0  0  0  0  0  0
    5.0558    4.7272   -5.8616 H   0  0  0  0  0  0  0  0  0  0  0  0
    6.1258    2.6573   -6.7078 H   0  0  0  0  0  0  0  0  0  0  0  0
    5.5524    0.4611   -5.7318 H   0  0  0  0  0  0  0  0  0  0  0  0
    3.8996    0.2895   -3.9049 H   0  0  0  0  0  0  0  0  0  0  0  0
    4.0390   -0.4502    0.7673 H   0  0  0  0  0  0  0  0  0  0  0  0
    0.7922   -2.3443    0.7500 H   0  0  0  0  0  0  0  0  0  0  0  0
    0.3330   -4.0699    2.4397 H   0  0  0  0  0  0  0  0  0  0  0  0
    3.9913   -3.5373    4.2467 H   0  0  0  0  0  0  0  0  0  0  0  0
    4.6393   -1.7589    2.6448 H   0  0  0  0  0  0  0  0  0  0  0  0
  1  2  2  0  0  0  0
  2  3  1  0  0  0  0
  2 22  1  0  0  0  0
  3  4  1  0  0  0  0
  3 29  1  0  0  0  0
  3 30  1  0  0  0  0
  4  5  1  0  0  0  0
  4 31  1  0  0  0  0
  4 32  1  0  0  0  0
  5  6  2  0  0  0  0
  5 21  1  0  0  0  0
  6  7  1  0  0  0  0
  6 33  1  0  0  0  0
  7  8  1  0  0  0  0
  7 16  1  0  0  0  0
  8  9  1  0  0  0  0
  8 34  1  0  0  0  0
  8 35  1  0  0  0  0
  9 10  1  0  0  0  0
  9 15  2  0  0  0  0
 10 11  2  0  0  0  0
 10 36  1  0  0  0  0
 11 12  1  0  0  0  0
 11 37  1  0  0  0  0
 12 13  1  0  0  0  0
 12 14  2  0  0  0  0
 14 15  1  0  0  0  0
 14 38  1  0  0  0  0
 15 39  1  0  0  0  0
 16 17  1  0  0  0  0
 16 21  2  0  0  0  0
 17 18  2  0  0  0  0
 17 40  1  0  0  0  0
 18 19  1  0  0  0  0
 18 41  1  0  0  0  0
 19 20  2  0  0  0  0
 19 42  1  0  0  0  0
 20 21  1  0  0  0  0
 20 43  1  0  0  0  0
 22 23  1  0  0  0  0
 22 44  1  0  0  0  0
 23 24  1  0  0  0  0
 23 28  2  0  0  0  0
 24 25  2  0  0  0  0
 24 45  1  0  0  0  0
 25 26  1  0  0  0  0
 25 46  1  0  0  0  0
 26 27  2  0  0  0  0
 27 28  1  0  0  0  0
 27 47  1  0  0  0  0
 28 48  1  0  0  0  0
M  END
$$$$
