CHEMBL3354186
 OpenBabel04072215363D

 51 55  0  0  0  0  0  0  0  0999 V2000
    2.8668    1.5714   -0.7835 C   0  0  0  0  0  0  0  0  0  0  0  0
    3.2069    0.2370   -1.1355 O   0  0  0  0  0  0  0  0  0  0  0  0
    4.6107    0.0221   -1.3440 C   0  0  0  0  0  0  0  0  0  0  0  0
    4.7922   -1.4130   -1.8562 C   0  0  0  0  0  0  0  0  0  0  0  0
    4.4487   -2.4399   -0.7755 C   0  0  0  0  0  0  0  0  0  0  0  0
    5.1545   -2.1443    0.4662 N   0  0  0  0  0  0  0  0  0  0  0  0
    6.2092   -2.9201    0.8919 C   0  0  0  0  0  0  0  0  0  0  0  0
    6.7838   -2.6388    2.0704 N   0  0  0  0  0  0  0  0  0  0  0  0
    7.7591   -3.4533    2.5016 C   0  0  0  0  0  0  0  0  0  0  0  0
    8.2106   -4.5319    1.7891 C   0  0  0  0  0  0  0  0  0  0  0  0
    7.5899   -4.7614    0.5823 C   0  0  0  0  0  0  0  0  0  0  0  0
    7.9519   -5.9090   -0.1404 N   0  0  0  0  0  0  0  0  0  0  0  0
    7.2661   -6.5640   -1.1668 C   0  0  0  0  0  0  0  0  0  0  0  0
    5.8901   -6.4312   -1.3242 C   0  0  0  0  0  0  0  0  0  0  0  0
    5.3061   -7.1540   -2.3565 C   0  0  0  0  0  0  0  0  0  0  0  0
    4.0039   -7.1878   -2.7867 N   0  0  0  0  0  0  0  0  0  0  0  0
    3.8738   -8.0717   -3.8229 C   0  0  0  0  0  0  0  0  0  0  0  0
    2.6110   -8.3606   -4.5306 C   0  0  0  0  0  0  0  0  0  0  0  0
    2.3624   -9.2958   -5.5505 C   0  0  0  0  0  0  0  0  0  0  0  0
    1.0887   -9.2684   -5.9628 N   0  0  0  0  0  0  0  0  0  0  0  0
    0.5320   -8.3108   -5.2017 N   0  0  0  0  0  0  0  0  0  0  0  0
    1.4037   -7.7389   -4.3195 C   0  0  0  0  0  0  0  0  0  0  0  0
    5.1195   -8.6143   -4.0678 C   0  0  0  0  0  0  0  0  0  0  0  0
    6.0424   -8.0153   -3.1612 C   0  0  0  0  0  0  0  0  0  0  0  0
    7.4173   -8.1178   -2.9272 C   0  0  0  0  0  0  0  0  0  0  0  0
    8.0097   -7.3882   -1.9416 N   0  0  0  0  0  0  0  0  0  0  0  0
    6.5955   -3.9639    0.1472 N   0  0  0  0  0  0  0  0  0  0  0  0
    5.0043   -0.7983    0.9993 C   0  0  0  0  0  0  0  0  0  0  0  0
    5.4330    0.2114   -0.0642 C   0  0  0  0  0  0  0  0  0  0  0  0
    1.7764    1.6523   -0.7657 H   0  0  0  0  0  0  0  0  0  0  0  0
    3.2609    2.2825   -1.5145 H   0  0  0  0  0  0  0  0  0  0  0  0
    3.2302    1.8142    0.2188 H   0  0  0  0  0  0  0  0  0  0  0  0
    4.9551    0.7170   -2.1196 H   0  0  0  0  0  0  0  0  0  0  0  0
    5.8298   -1.5568   -2.1818 H   0  0  0  0  0  0  0  0  0  0  0  0
    4.1454   -1.5875   -2.7244 H   0  0  0  0  0  0  0  0  0  0  0  0
    4.6438   -3.4479   -1.1577 H   0  0  0  0  0  0  0  0  0  0  0  0
    3.3702   -2.4096   -0.5753 H   0  0  0  0  0  0  0  0  0  0  0  0
    8.1657   -3.2120    3.4786 H   0  0  0  0  0  0  0  0  0  0  0  0
    8.9796   -5.1837    2.1784 H   0  0  0  0  0  0  0  0  0  0  0  0
    8.9450   -6.0647   -0.2435 H   0  0  0  0  0  0  0  0  0  0  0  0
    5.2944   -5.8002   -0.6797 H   0  0  0  0  0  0  0  0  0  0  0  0
    3.2542   -6.6380   -2.3912 H   0  0  0  0  0  0  0  0  0  0  0  0
    3.0442   -9.9977   -6.0087 H   0  0  0  0  0  0  0  0  0  0  0  0
   -0.4504   -8.0973   -5.3414 H   0  0  0  0  0  0  0  0  0  0  0  0
    1.0833   -6.9502   -3.6532 H   0  0  0  0  0  0  0  0  0  0  0  0
    5.3568   -9.3508   -4.8238 H   0  0  0  0  0  0  0  0  0  0  0  0
    8.0679   -8.7665   -3.5023 H   0  0  0  0  0  0  0  0  0  0  0  0
    5.5790   -0.6190    1.9143 H   0  0  0  0  0  0  0  0  0  0  0  0
    3.9537   -0.6391    1.2712 H   0  0  0  0  0  0  0  0  0  0  0  0
    6.4970    0.0770   -0.2971 H   0  0  0  0  0  0  0  0  0  0  0  0
    5.3216    1.2247    0.3328 H   0  0  0  0  0  0  0  0  0  0  0  0
  1  2  1  0  0  0  0
  1 30  1  0  0  0  0
  1 31  1  0  0  0  0
  1 32  1  0  0  0  0
  2  3  1  0  0  0  0
  3  4  1  0  0  0  0
  3 29  1  0  0  0  0
  3 33  1  0  0  0  0
  4  5  1  0  0  0  0
  4 34  1  0  0  0  0
  4 35  1  0  0  0  0
  5  6  1  0  0  0  0
  5 36  1  0  0  0  0
  5 37  1  0  0  0  0
  6  7  1  0  0  0  0
  6 28  1  0  0  0  0
  7  8  1  0  0  0  0
  7 27  2  0  0  0  0
  8  9  2  0  0  0  0
  9 10  1  0  0  0  0
  9 38  1  0  0  0  0
 10 11  2  0  0  0  0
 10 39  1  0  0  0  0
 11 12  1  0  0  0  0
 11 27  1  0  0  0  0
 12 13  1  0  0  0  0
 12 40  1  0  0  0  0
 13 14  1  0  0  0  0
 13 26  2  0  0  0  0
 14 15  2  0  0  0  0
 14 41  1  0  0  0  0
 15 16  1  0  0  0  0
 15 24  1  0  0  0  0
 16 17  1  0  0  0  0
 16 42  1  0  0  0  0
 17 18  1  0  0  0  0
 17 23  2  0  0  0  0
 18 19  1  0  0  0  0
 18 22  2  0  0  0  0
 19 20  2  0  0  0  0
 19 43  1  0  0  0  0
 20 21  1  0  0  0  0
 21 22  1  0  0  0  0
 21 44  1  0  0  0  0
 22 45  1  0  0  0  0
 23 24  1  0  0  0  0
 23 46  1  0  0  0  0
 24 25  2  0  0  0  0
 25 26  1  0  0  0  0
 25 47  1  0  0  0  0
 28 29  1  0  0  0  0
 28 48  1  0  0  0  0
 28 49  1  0  0  0  0
 29 50  1  0  0  0  0
 29 51  1  0  0  0  0
M  END
$$$$
