CHEMBL2000071
 OpenBabel04072215363D

 36 38  0  0  0  0  0  0  0  0999 V2000
    1.1705    0.3743    2.3383 O   0  0  0  0  0  0  0  0  0  0  0  0
    2.5904    0.3158    2.3233 C   0  0  0  0  0  0  0  0  0  0  0  0
    3.0289   -1.0818    1.9119 C   0  0  0  0  0  0  0  0  0  0  0  0
    4.5510   -1.1786    1.8620 C   0  0  0  0  0  0  0  0  0  0  0  0
    4.9508   -2.5324    1.5168 N   0  0  0  0  0  0  0  0  0  0  0  0
    6.3216   -2.7919    1.5034 C   0  0  0  0  0  0  0  0  0  0  0  0
    7.1825   -1.8002    1.8545 N   0  0  0  0  0  0  0  0  0  0  0  0
    8.5045   -2.0328    1.8280 C   0  0  0  0  0  0  0  0  0  0  0  0
    9.1312   -3.1695    1.5013 N   0  0  0  0  0  0  0  0  0  0  0  0
    8.2561   -4.1336    1.1850 C   0  0  0  0  0  0  0  0  0  0  0  0
    8.6309   -5.3977    0.8385 N   0  0  0  0  0  0  0  0  0  0  0  0
    7.5204   -6.1544    0.5878 C   0  0  0  0  0  0  0  0  0  0  0  0
    6.3963   -5.3605    0.7612 C   0  0  0  0  0  0  0  0  0  0  0  0
    5.0482   -5.8943    0.5609 C   0  0  0  0  0  0  0  0  0  0  0  0
    3.9766   -5.4819    1.3614 C   0  0  0  0  0  0  0  0  0  0  0  0
    2.6806   -5.9529    1.1275 C   0  0  0  0  0  0  0  0  0  0  0  0
    2.4469   -6.8861    0.1214 C   0  0  0  0  0  0  0  0  0  0  0  0
    3.5080   -7.3466   -0.6523 C   0  0  0  0  0  0  0  0  0  0  0  0
    4.7966   -6.8465   -0.4407 C   0  0  0  0  0  0  0  0  0  0  0  0
    6.8688   -4.0520    1.1554 C   0  0  0  0  0  0  0  0  0  0  0  0
    0.9229    1.2681    2.6290 H   0  0  0  0  0  0  0  0  0  0  0  0
    2.9583    0.5617    3.3247 H   0  0  0  0  0  0  0  0  0  0  0  0
    2.9603    1.0648    1.6157 H   0  0  0  0  0  0  0  0  0  0  0  0
    2.5956   -1.3364    0.9372 H   0  0  0  0  0  0  0  0  0  0  0  0
    2.6202   -1.8179    2.6169 H   0  0  0  0  0  0  0  0  0  0  0  0
    4.9488   -0.9116    2.8479 H   0  0  0  0  0  0  0  0  0  0  0  0
    4.9393   -0.4650    1.1258 H   0  0  0  0  0  0  0  0  0  0  0  0
    4.4964   -2.9386    0.7051 H   0  0  0  0  0  0  0  0  0  0  0  0
    9.1397   -1.1959    2.1015 H   0  0  0  0  0  0  0  0  0  0  0  0
    9.5921   -5.7046    0.7959 H   0  0  0  0  0  0  0  0  0  0  0  0
    7.6285   -7.1985    0.3183 H   0  0  0  0  0  0  0  0  0  0  0  0
    4.1312   -4.7911    2.1866 H   0  0  0  0  0  0  0  0  0  0  0  0
    1.8571   -5.5926    1.7390 H   0  0  0  0  0  0  0  0  0  0  0  0
    1.4413   -7.2594   -0.0532 H   0  0  0  0  0  0  0  0  0  0  0  0
    3.3353   -8.0907   -1.4255 H   0  0  0  0  0  0  0  0  0  0  0  0
    5.6011   -7.2108   -1.0748 H   0  0  0  0  0  0  0  0  0  0  0  0
  1  2  1  0  0  0  0
  1 21  1  0  0  0  0
  2  3  1  0  0  0  0
  2 22  1  0  0  0  0
  2 23  1  0  0  0  0
  3  4  1  0  0  0  0
  3 24  1  0  0  0  0
  3 25  1  0  0  0  0
  4  5  1  0  0  0  0
  4 26  1  0  0  0  0
  4 27  1  0  0  0  0
  5  6  1  0  0  0  0
  5 28  1  0  0  0  0
  6  7  1  0  0  0  0
  6 20  2  0  0  0  0
  7  8  2  0  0  0  0
  8  9  1  0  0  0  0
  8 29  1  0  0  0  0
  9 10  2  0  0  0  0
 10 11  1  0  0  0  0
 10 20  1  0  0  0  0
 11 12  1  0  0  0  0
 11 30  1  0  0  0  0
 12 13  2  0  0  0  0
 12 31  1  0  0  0  0
 13 14  1  0  0  0  0
 13 20  1  0  0  0  0
 14 15  1  0  0  0  0
 14 19  2  0  0  0  0
 15 16  2  0  0  0  0
 15 32  1  0  0  0  0
 16 17  1  0  0  0  0
 16 33  1  0  0  0  0
 17 18  2  0  0  0  0
 17 34  1  0  0  0  0
 18 19  1  0  0  0  0
 18 35  1  0  0  0  0
 19 36  1  0  0  0  0
M  END
$$$$
