CHEMBL3297899
 OpenBabel04072215363D

 41 43  0  0  0  0  0  0  0  0999 V2000
    2.5599    0.9801   -1.1403 C   0  0  0  0  0  0  0  0  0  0  0  0
    2.4912    0.0307    0.0534 C   0  0  0  0  0  0  0  0  0  0  0  0
    2.9324   -1.3298   -0.2944 N   0  0  0  0  0  0  0  0  0  0  0  0
    1.9465   -2.3190   -0.5395 C   0  0  0  0  0  0  0  0  0  0  0  0
    0.7843   -2.0565   -1.2647 C   0  0  0  0  0  0  0  0  0  0  0  0
   -0.0809   -3.0889   -1.6571 C   0  0  0  0  0  0  0  0  0  0  0  0
    0.2033   -4.4137   -1.3377 C   0  0  0  0  0  0  0  0  0  0  0  0
   -0.5358   -5.5065   -1.6933 O   0  0  0  0  0  0  0  0  0  0  0  0
   -1.7564   -5.2511   -2.3763 C   0  0  0  0  0  0  0  0  0  0  0  0
    1.3441   -4.6956   -0.5932 C   0  0  0  0  0  0  0  0  0  0  0  0
    2.1814   -3.6579   -0.1647 C   0  0  0  0  0  0  0  0  0  0  0  0
    4.3205   -1.5018   -0.4509 C   0  0  0  0  0  0  0  0  0  0  0  0
    5.2093   -0.7033    0.2167 N   0  0  0  0  0  0  0  0  0  0  0  0
    6.5336   -0.9476    0.1340 C   0  0  0  0  0  0  0  0  0  0  0  0
    7.4326   -0.0473    0.9375 C   0  0  0  0  0  0  0  0  0  0  0  0
    7.1426   -1.9192   -0.5580 N   0  0  0  0  0  0  0  0  0  0  0  0
    6.2596   -2.6553   -1.2482 C   0  0  0  0  0  0  0  0  0  0  0  0
    6.6150   -3.7330   -2.0219 O   0  0  0  0  0  0  0  0  0  0  0  0
    5.4685   -4.2305   -2.5693 C   0  0  0  0  0  0  0  0  0  0  0  0
    5.5387   -5.4437   -3.4052 C   0  0  0  0  0  0  0  0  0  0  0  0
    4.3972   -3.4594   -2.2015 C   0  0  0  0  0  0  0  0  0  0  0  0
    4.8848   -2.4956   -1.2767 C   0  0  0  0  0  0  0  0  0  0  0  0
    2.0394    1.9137   -0.9059 H   0  0  0  0  0  0  0  0  0  0  0  0
    2.0987    0.5520   -2.0354 H   0  0  0  0  0  0  0  0  0  0  0  0
    3.5953    1.2287   -1.3906 H   0  0  0  0  0  0  0  0  0  0  0  0
    1.4660    0.0161    0.4422 H   0  0  0  0  0  0  0  0  0  0  0  0
    3.0915    0.4405    0.8764 H   0  0  0  0  0  0  0  0  0  0  0  0
    0.5491   -1.0495   -1.5933 H   0  0  0  0  0  0  0  0  0  0  0  0
   -0.9482   -2.8194   -2.2515 H   0  0  0  0  0  0  0  0  0  0  0  0
   -2.3000   -6.1967   -2.4602 H   0  0  0  0  0  0  0  0  0  0  0  0
   -1.5598   -4.8822   -3.3882 H   0  0  0  0  0  0  0  0  0  0  0  0
   -2.3917   -4.5554   -1.8179 H   0  0  0  0  0  0  0  0  0  0  0  0
    1.6085   -5.7263   -0.3706 H   0  0  0  0  0  0  0  0  0  0  0  0
    3.0720   -3.9247    0.4016 H   0  0  0  0  0  0  0  0  0  0  0  0
    6.8543    0.7054    1.4817 H   0  0  0  0  0  0  0  0  0  0  0  0
    8.1350    0.4677    0.2736 H   0  0  0  0  0  0  0  0  0  0  0  0
    7.9979   -0.6399    1.6631 H   0  0  0  0  0  0  0  0  0  0  0  0
    6.5605   -5.7836   -3.5590 H   0  0  0  0  0  0  0  0  0  0  0  0
    5.0769   -5.2473   -4.3796 H   0  0  0  0  0  0  0  0  0  0  0  0
    4.9671   -6.2533   -2.9313 H   0  0  0  0  0  0  0  0  0  0  0  0
    3.3803   -3.6292   -2.5130 H   0  0  0  0  0  0  0  0  0  0  0  0
  1  2  1  0  0  0  0
  1 23  1  0  0  0  0
  1 24  1  0  0  0  0
  1 25  1  0  0  0  0
  2  3  1  0  0  0  0
  2 26  1  0  0  0  0
  2 27  1  0  0  0  0
  3  4  1  0  0  0  0
  3 12  1  0  0  0  0
  4  5  1  0  0  0  0
  4 11  2  0  0  0  0
  5  6  2  0  0  0  0
  5 28  1  0  0  0  0
  6  7  1  0  0  0  0
  6 29  1  0  0  0  0
  7  8  1  0  0  0  0
  7 10  2  0  0  0  0
  8  9  1  0  0  0  0
  9 30  1  0  0  0  0
  9 31  1  0  0  0  0
  9 32  1  0  0  0  0
 10 11  1  0  0  0  0
 10 33  1  0  0  0  0
 11 34  1  0  0  0  0
 12 13  1  0  0  0  0
 12 22  2  0  0  0  0
 13 14  2  0  0  0  0
 14 15  1  0  0  0  0
 14 16  1  0  0  0  0
 15 35  1  0  0  0  0
 15 36  1  0  0  0  0
 15 37  1  0  0  0  0
 16 17  2  0  0  0  0
 17 18  1  0  0  0  0
 17 22  1  0  0  0  0
 18 19  1  0  0  0  0
 19 20  1  0  0  0  0
 19 21  2  0  0  0  0
 20 38  1  0  0  0  0
 20 39  1  0  0  0  0
 20 40  1  0  0  0  0
 21 22  1  0  0  0  0
 21 41  1  0  0  0  0
M  END
$$$$
