CHEMBL3644032
 OpenBabel04072215373D

 49 51  0  0  1  0  0  0  0  0999 V2000
    4.1335   -1.3970   -0.2257 C   0  0  0  0  0  0  0  0  0  0  0  0
    3.4465   -0.1257   -0.7083 C   0  0  1  0  0  0  0  0  0  0  0  0
    2.1091   -0.1352   -0.1912 O   0  0  0  0  0  0  0  0  0  0  0  0
    4.1833    1.1817   -0.2965 C   0  0  1  0  0  0  0  0  0  0  0  0
    3.3910    2.3796   -0.8345 C   0  0  0  0  0  0  0  0  0  0  0  0
    4.2394    1.2051    1.1392 O   0  0  0  0  0  0  0  0  0  0  0  0
    4.9782    2.1981    1.7487 C   0  0  0  0  0  0  0  0  0  0  0  0
    5.9291    2.8628    1.0462 N   0  0  0  0  0  0  0  0  0  0  0  0
    6.5976    3.8254    1.7076 C   0  0  0  0  0  0  0  0  0  0  0  0
    7.7200    4.4211    1.1159 N   0  0  0  0  0  0  0  0  0  0  0  0
    8.8392    4.9376    1.8087 C   0  0  0  0  0  0  0  0  0  0  0  0
    9.2280    4.4495    3.0589 C   0  0  0  0  0  0  0  0  0  0  0  0
   10.2521    5.0509    3.8041 C   0  0  0  0  0  0  0  0  0  0  0  0
   10.9233    6.1615    3.2833 C   0  0  0  0  0  0  0  0  0  0  0  0
   11.9484    7.1236    4.3665 S   0  0  0  0  0  0  0  0  0  0  0  0
   11.8802    8.4931    3.8983 O   0  0  0  0  0  0  0  0  0  0  0  0
   11.5675    6.8103    5.7285 O   0  0  0  0  0  0  0  0  0  0  0  0
   13.6839    6.6586    4.2446 C   0  0  0  0  0  0  0  0  0  0  0  0
   14.2661    6.7183    2.8568 C   0  0  0  0  0  0  0  0  0  0  0  0
   14.0540    5.3880    3.5412 C   0  0  0  0  0  0  0  0  0  0  0  0
   10.5853    6.6330    2.0093 C   0  0  0  0  0  0  0  0  0  0  0  0
    9.5661    6.0138    1.2670 C   0  0  0  0  0  0  0  0  0  0  0  0
    6.2731    4.2143    2.9512 N   0  0  0  0  0  0  0  0  0  0  0  0
    5.3577    3.5039    3.6178 C   0  0  0  0  0  0  0  0  0  0  0  0
    4.7094    2.4269    3.0762 C   0  0  0  0  0  0  0  0  0  0  0  0
    3.8463    1.5915    3.9471 C   0  0  0  0  0  0  0  0  0  0  0  0
    3.2457    0.5264    3.3548 F   0  0  0  0  0  0  0  0  0  0  0  0
    4.5603    1.0706    4.9887 F   0  0  0  0  0  0  0  0  0  0  0  0
    2.8450    2.3103    4.5278 F   0  0  0  0  0  0  0  0  0  0  0  0
    3.5221   -2.2730   -0.4743 H   0  0  0  0  0  0  0  0  0  0  0  0
    4.2511   -1.4041    0.8628 H   0  0  0  0  0  0  0  0  0  0  0  0
    5.1162   -1.5165   -0.6896 H   0  0  0  0  0  0  0  0  0  0  0  0
    3.3627   -0.1675   -1.8005 H   0  0  0  0  0  0  0  0  0  0  0  0
    2.1795   -0.0549    0.7781 H   0  0  0  0  0  0  0  0  0  0  0  0
    5.1953    1.1591   -0.7185 H   0  0  0  0  0  0  0  0  0  0  0  0
    2.4111    2.4576   -0.3504 H   0  0  0  0  0  0  0  0  0  0  0  0
    3.2395    2.2940   -1.9157 H   0  0  0  0  0  0  0  0  0  0  0  0
    3.9083    3.3236   -0.6431 H   0  0  0  0  0  0  0  0  0  0  0  0
    7.9216    3.9996    0.2197 H   0  0  0  0  0  0  0  0  0  0  0  0
    8.7025    3.6071    3.5120 H   0  0  0  0  0  0  0  0  0  0  0  0
   10.4603    4.6875    4.8081 H   0  0  0  0  0  0  0  0  0  0  0  0
   14.3095    7.0041    5.0618 H   0  0  0  0  0  0  0  0  0  0  0  0
   15.2792    7.0966    2.7571 H   0  0  0  0  0  0  0  0  0  0  0  0
   13.6304    6.9635    2.0267 H   0  0  0  0  0  0  0  0  0  0  0  0
   14.9409    4.8699    3.8941 H   0  0  0  0  0  0  0  0  0  0  0  0
   13.2895    4.7269    3.1599 H   0  0  0  0  0  0  0  0  0  0  0  0
   11.0612    7.5312    1.6155 H   0  0  0  0  0  0  0  0  0  0  0  0
    9.2867    6.4294    0.3100 H   0  0  0  0  0  0  0  0  0  0  0  0
    5.1866    3.8264    4.6408 H   0  0  0  0  0  0  0  0  0  0  0  0
  1  2  1  0  0  0  0
  1 30  1  0  0  0  0
  1 31  1  0  0  0  0
  1 32  1  0  0  0  0
  2  3  1  0  0  0  0
  2  4  1  0  0  0  0
  2 33  1  6  0  0  0
  3 34  1  0  0  0  0
  4  5  1  0  0  0  0
  4  6  1  0  0  0  0
  4 35  1  6  0  0  0
  5 36  1  0  0  0  0
  5 37  1  0  0  0  0
  5 38  1  0  0  0  0
  6  7  1  0  0  0  0
  7  8  1  0  0  0  0
  7 25  2  0  0  0  0
  8  9  2  0  0  0  0
  9 10  1  0  0  0  0
  9 23  1  0  0  0  0
 10 11  1  0  0  0  0
 10 39  1  0  0  0  0
 11 12  1  0  0  0  0
 11 22  2  0  0  0  0
 12 13  2  0  0  0  0
 12 40  1  0  0  0  0
 13 14  1  0  0  0  0
 13 41  1  0  0  0  0
 14 15  1  0  0  0  0
 14 21  2  0  0  0  0
 15 16  2  0  0  0  0
 15 17  2  0  0  0  0
 15 18  1  0  0  0  0
 18 19  1  0  0  0  0
 18 20  1  0  0  0  0
 18 42  1  0  0  0  0
 19 20  1  0  0  0  0
 19 43  1  0  0  0  0
 19 44  1  0  0  0  0
 20 45  1  0  0  0  0
 20 46  1  0  0  0  0
 21 22  1  0  0  0  0
 21 47  1  0  0  0  0
 22 48  1  0  0  0  0
 23 24  2  0  0  0  0
 24 25  1  0  0  0  0
 24 49  1  0  0  0  0
 25 26  1  0  0  0  0
 26 27  1  0  0  0  0
 26 28  1  0  0  0  0
 26 29  1  0  0  0  0
M  END
$$$$
