CHEMBL2016904
 OpenBabel04072215363D

 64 69  0  0  0  0  0  0  0  0999 V2000
    1.2464    0.9710   -0.4190 O   0  0  0  0  0  0  0  0  0  0  0  0
    2.4477    0.7085   -0.4164 C   0  0  0  0  0  0  0  0  0  0  0  0
    3.1398    0.6070    0.9038 C   0  0  0  0  0  0  0  0  0  0  0  0
    2.5258   -0.0696    1.9661 C   0  0  0  0  0  0  0  0  0  0  0  0
    3.1909   -0.1873    3.1977 C   0  0  0  0  0  0  0  0  0  0  0  0
    4.4619    0.3747    3.3815 C   0  0  0  0  0  0  0  0  0  0  0  0
    5.1576    0.3521    4.7278 C   0  0  0  0  0  0  0  0  0  0  0  0
    5.3856   -0.9827    5.3246 N   0  0  0  0  0  0  0  0  0  0  0  0
    6.3251   -1.7751    4.5108 C   0  0  0  0  0  0  0  0  0  0  0  0
    6.7186   -3.0973    5.1786 C   0  0  0  0  0  0  0  0  0  0  0  0
    7.2919   -2.8626    6.5688 C   0  0  0  0  0  0  0  0  0  0  0  0
    6.2898   -2.0777    7.4005 C   0  0  0  0  0  0  0  0  0  0  0  0
    5.8982   -0.7798    6.6963 C   0  0  0  0  0  0  0  0  0  0  0  0
    5.0500    1.0732    2.3164 C   0  0  0  0  0  0  0  0  0  0  0  0
    4.3798    1.2184    1.1016 C   0  0  0  0  0  0  0  0  0  0  0  0
    3.1872    0.4629   -1.6020 N   0  0  0  0  0  0  0  0  0  0  0  0
    2.3763    0.4614   -2.8523 C   0  0  0  0  0  0  0  0  0  0  0  0
    3.1211    0.3209   -4.2089 C   0  0  0  0  0  0  0  0  0  0  0  0
    4.3691   -0.4543   -4.0498 C   0  0  0  0  0  0  0  0  0  0  0  0
    5.0194   -1.1961   -5.0063 N   0  0  0  0  0  0  0  0  0  0  0  0
    5.8992   -1.9313   -4.3231 C   0  0  0  0  0  0  0  0  0  0  0  0
    6.2510   -3.3339   -4.4505 C   0  0  0  0  0  0  0  0  0  0  0  0
    5.3909   -4.0328   -5.2277 C   0  0  0  0  0  0  0  0  0  0  0  0
    4.1674   -4.4094   -4.4625 C   0  0  0  0  0  0  0  0  0  0  0  0
    2.9028   -4.2102   -5.0182 C   0  0  0  0  0  0  0  0  0  0  0  0
    1.7800   -4.2137   -4.1910 C   0  0  0  0  0  0  0  0  0  0  0  0
    1.9092   -4.4828   -2.8251 C   0  0  0  0  0  0  0  0  0  0  0  0
    3.1605   -4.7696   -2.2746 C   0  0  0  0  0  0  0  0  0  0  0  0
    4.2855   -4.6875   -3.0896 C   0  0  0  0  0  0  0  0  0  0  0  0
    5.5694   -4.6978   -2.5240 N   0  0  0  0  0  0  0  0  0  0  0  0
    6.6036   -4.0387   -3.1517 C   0  0  0  0  0  0  0  0  0  0  0  0
    7.6839   -3.8491   -2.5943 O   0  0  0  0  0  0  0  0  0  0  0  0
    6.0911   -1.3538   -3.0801 N   0  0  0  0  0  0  0  0  0  0  0  0
    4.9239   -0.6875   -2.8233 C   0  0  0  0  0  0  0  0  0  0  0  0
    4.3372   -0.4457   -1.5078 C   0  0  0  0  0  0  0  0  0  0  0  0
    1.5417   -0.5101    1.8377 H   0  0  0  0  0  0  0  0  0  0  0  0
    2.7022   -0.7010    4.0244 H   0  0  0  0  0  0  0  0  0  0  0  0
    4.5310    0.9528    5.4008 H   0  0  0  0  0  0  0  0  0  0  0  0
    6.1151    0.8863    4.6502 H   0  0  0  0  0  0  0  0  0  0  0  0
    7.2370   -1.2016    4.2995 H   0  0  0  0  0  0  0  0  0  0  0  0
    5.8630   -2.0199    3.5472 H   0  0  0  0  0  0  0  0  0  0  0  0
    7.4580   -3.6182    4.5596 H   0  0  0  0  0  0  0  0  0  0  0  0
    5.8419   -3.7533    5.2505 H   0  0  0  0  0  0  0  0  0  0  0  0
    8.2326   -2.3023    6.4932 H   0  0  0  0  0  0  0  0  0  0  0  0
    7.5227   -3.8169    7.0541 H   0  0  0  0  0  0  0  0  0  0  0  0
    6.7231   -1.8476    8.3808 H   0  0  0  0  0  0  0  0  0  0  0  0
    5.3968   -2.6889    7.5795 H   0  0  0  0  0  0  0  0  0  0  0  0
    6.7699   -0.1114    6.6858 H   0  0  0  0  0  0  0  0  0  0  0  0
    5.1240   -0.2905    7.3005 H   0  0  0  0  0  0  0  0  0  0  0  0
    6.0289    1.5329    2.4324 H   0  0  0  0  0  0  0  0  0  0  0  0
    4.8365    1.8019    0.3070 H   0  0  0  0  0  0  0  0  0  0  0  0
    1.7939    1.3927   -2.8729 H   0  0  0  0  0  0  0  0  0  0  0  0
    1.6475   -0.3539   -2.7555 H   0  0  0  0  0  0  0  0  0  0  0  0
    3.3718    1.3155   -4.5947 H   0  0  0  0  0  0  0  0  0  0  0  0
    2.4541   -0.1510   -4.9405 H   0  0  0  0  0  0  0  0  0  0  0  0
    5.1354   -3.6276   -6.2073 H   0  0  0  0  0  0  0  0  0  0  0  0
    2.7958   -3.9383   -6.0654 H   0  0  0  0  0  0  0  0  0  0  0  0
    0.8100   -3.9489   -4.6053 H   0  0  0  0  0  0  0  0  0  0  0  0
    1.0341   -4.4209   -2.1821 H   0  0  0  0  0  0  0  0  0  0  0  0
    3.2487   -4.9319   -1.2046 H   0  0  0  0  0  0  0  0  0  0  0  0
    5.7180   -4.9730   -1.5643 H   0  0  0  0  0  0  0  0  0  0  0  0
    6.7259   -1.7096   -2.3773 H   0  0  0  0  0  0  0  0  0  0  0  0
    5.1079   -0.0484   -0.8507 H   0  0  0  0  0  0  0  0  0  0  0  0
    3.9752   -1.3918   -1.0855 H   0  0  0  0  0  0  0  0  0  0  0  0
  1  2  2  0  0  0  0
  2  3  1  0  0  0  0
  2 16  1  0  0  0  0
  3  4  1  0  0  0  0
  3 15  2  0  0  0  0
  4  5  2  0  0  0  0
  4 36  1  0  0  0  0
  5  6  1  0  0  0  0
  5 37  1  0  0  0  0
  6  7  1  0  0  0  0
  6 14  2  0  0  0  0
  7  8  1  0  0  0  0
  7 38  1  0  0  0  0
  7 39  1  0  0  0  0
  8  9  1  0  0  0  0
  8 13  1  0  0  0  0
  9 10  1  0  0  0  0
  9 40  1  0  0  0  0
  9 41  1  0  0  0  0
 10 11  1  0  0  0  0
 10 42  1  0  0  0  0
 10 43  1  0  0  0  0
 11 12  1  0  0  0  0
 11 44  1  0  0  0  0
 11 45  1  0  0  0  0
 12 13  1  0  0  0  0
 12 46  1  0  0  0  0
 12 47  1  0  0  0  0
 13 48  1  0  0  0  0
 13 49  1  0  0  0  0
 14 15  1  0  0  0  0
 14 50  1  0  0  0  0
 15 51  1  0  0  0  0
 16 17  1  0  0  0  0
 16 35  1  0  0  0  0
 17 18  1  0  0  0  0
 17 52  1  0  0  0  0
 17 53  1  0  0  0  0
 18 19  1  0  0  0  0
 18 54  1  0  0  0  0
 18 55  1  0  0  0  0
 19 20  1  0  0  0  0
 19 34  2  0  0  0  0
 20 21  2  0  0  0  0
 21 22  1  0  0  0  0
 21 33  1  0  0  0  0
 22 23  2  0  0  0  0
 22 31  1  0  0  0  0
 23 24  1  0  0  0  0
 23 56  1  0  0  0  0
 24 25  1  0  0  0  0
 24 29  2  0  0  0  0
 25 26  2  0  0  0  0
 25 57  1  0  0  0  0
 26 27  1  0  0  0  0
 26 58  1  0  0  0  0
 27 28  2  0  0  0  0
 27 59  1  0  0  0  0
 28 29  1  0  0  0  0
 28 60  1  0  0  0  0
 29 30  1  0  0  0  0
 30 31  1  0  0  0  0
 30 61  1  0  0  0  0
 31 32  2  0  0  0  0
 33 34  1  0  0  0  0
 33 62  1  0  0  0  0
 34 35  1  0  0  0  0
 35 63  1  0  0  0  0
 35 64  1  0  0  0  0
M  END
$$$$
