CHEMBL3925225
 OpenBabel04072215373D

 55 58  0  0  0  0  0  0  0  0999 V2000
    2.3382   -0.2046   -1.7571 C   0  0  0  0  0  0  0  0  0  0  0  0
    0.8841   -0.1653   -1.3757 C   0  0  0  0  0  0  0  0  0  0  0  0
    0.3314    1.0772   -1.0598 C   0  0  0  0  0  0  0  0  0  0  0  0
   -1.0103    1.1942   -0.7088 C   0  0  0  0  0  0  0  0  0  0  0  0
   -1.8633    0.0888   -0.6986 C   0  0  0  0  0  0  0  0  0  0  0  0
   -3.2572    0.2084   -0.4319 N   0  0  0  0  0  0  0  0  0  0  0  0
   -3.9471    1.4034   -0.5799 C   0  0  0  0  0  0  0  0  0  0  0  0
   -3.4320    2.4215   -1.0209 O   0  0  0  0  0  0  0  0  0  0  0  0
   -5.2684    1.3399   -0.1587 N   0  0  0  0  0  0  0  0  0  0  0  0
   -6.1322    2.4725   -0.1798 C   0  0  0  0  0  0  0  0  0  0  0  0
   -5.8853    3.5947   -0.9851 C   0  0  0  0  0  0  0  0  0  0  0  0
   -6.6268    4.7689   -0.8516 C   0  0  0  0  0  0  0  0  0  0  0  0
   -7.6739    4.8283    0.0579 C   0  0  0  0  0  0  0  0  0  0  0  0
   -8.2497    6.0689    0.2004 O   0  0  0  0  0  0  0  0  0  0  0  0
   -9.6026    6.1863    0.4009 C   0  0  0  0  0  0  0  0  0  0  0  0
  -10.5397    5.2999   -0.1131 C   0  0  0  0  0  0  0  0  0  0  0  0
  -11.8621    5.5356    0.1849 C   0  0  0  0  0  0  0  0  0  0  0  0
  -12.2836    6.5943    0.8942 N   0  0  0  0  0  0  0  0  0  0  0  0
  -11.3837    7.4817    1.3459 C   0  0  0  0  0  0  0  0  0  0  0  0
  -11.8130    8.6103    2.0636 N   0  0  0  0  0  0  0  0  0  0  0  0
  -13.1415    8.8590    2.3584 C   0  0  0  0  0  0  0  0  0  0  0  0
  -14.1117    8.1717    2.0729 O   0  0  0  0  0  0  0  0  0  0  0  0
  -13.3712   10.1297    3.1191 C   0  0  0  0  0  0  0  0  0  0  0  0
  -14.4835   10.1749    4.1474 C   0  0  0  0  0  0  0  0  0  0  0  0
  -14.6340   10.9237    2.8549 C   0  0  0  0  0  0  0  0  0  0  0  0
  -10.0246    7.3143    1.1130 C   0  0  0  0  0  0  0  0  0  0  0  0
   -7.9773    3.6875    0.8083 C   0  0  0  0  0  0  0  0  0  0  0  0
   -8.9701    3.7018    1.7093 F   0  0  0  0  0  0  0  0  0  0  0  0
   -7.2338    2.5071    0.6761 C   0  0  0  0  0  0  0  0  0  0  0  0
   -1.3120   -1.1656   -0.9713 C   0  0  0  0  0  0  0  0  0  0  0  0
    0.0605   -1.3110   -1.3167 C   0  0  0  0  0  0  0  0  0  0  0  0
    0.5631   -2.7090   -1.6141 C   0  0  0  0  0  0  0  0  0  0  0  0
    1.8799   -2.7992   -1.9444 F   0  0  0  0  0  0  0  0  0  0  0  0
    0.3962   -3.5466   -0.5510 F   0  0  0  0  0  0  0  0  0  0  0  0
   -0.1128   -3.2887   -2.6467 F   0  0  0  0  0  0  0  0  0  0  0  0
    2.7810    0.7985   -1.7479 H   0  0  0  0  0  0  0  0  0  0  0  0
    2.4575   -0.5974   -2.7712 H   0  0  0  0  0  0  0  0  0  0  0  0
    2.9028   -0.8117   -1.0438 H   0  0  0  0  0  0  0  0  0  0  0  0
    0.9356    1.9827   -1.0882 H   0  0  0  0  0  0  0  0  0  0  0  0
   -1.3559    2.1902   -0.4491 H   0  0  0  0  0  0  0  0  0  0  0  0
   -3.8023   -0.6405   -0.4060 H   0  0  0  0  0  0  0  0  0  0  0  0
   -5.5103    0.5865    0.4697 H   0  0  0  0  0  0  0  0  0  0  0  0
   -5.0865    3.6075   -1.7212 H   0  0  0  0  0  0  0  0  0  0  0  0
   -6.3559    5.6402   -1.4427 H   0  0  0  0  0  0  0  0  0  0  0  0
  -10.2662    4.4411   -0.7105 H   0  0  0  0  0  0  0  0  0  0  0  0
  -12.6458    4.8607   -0.1426 H   0  0  0  0  0  0  0  0  0  0  0  0
  -11.1131    9.2647    2.3740 H   0  0  0  0  0  0  0  0  0  0  0  0
  -12.4863   10.7127    3.3527 H   0  0  0  0  0  0  0  0  0  0  0  0
  -14.3286   10.7472    5.0529 H   0  0  0  0  0  0  0  0  0  0  0  0
  -15.0875    9.2824    4.2849 H   0  0  0  0  0  0  0  0  0  0  0  0
  -14.5832   12.0047    2.8853 H   0  0  0  0  0  0  0  0  0  0  0  0
  -15.3403   10.5342    2.1274 H   0  0  0  0  0  0  0  0  0  0  0  0
   -9.2918    8.0292    1.4706 H   0  0  0  0  0  0  0  0  0  0  0  0
   -7.5030    1.6583    1.2957 H   0  0  0  0  0  0  0  0  0  0  0  0
   -1.9417   -2.0541   -0.9508 H   0  0  0  0  0  0  0  0  0  0  0  0
  1  2  1  0  0  0  0
  1 36  1  0  0  0  0
  1 37  1  0  0  0  0
  1 38  1  0  0  0  0
  2  3  1  0  0  0  0
  2 31  2  0  0  0  0
  3  4  2  0  0  0  0
  3 39  1  0  0  0  0
  4  5  1  0  0  0  0
  4 40  1  0  0  0  0
  5  6  1  0  0  0  0
  5 30  2  0  0  0  0
  6  7  1  0  0  0  0
  6 41  1  0  0  0  0
  7  8  2  0  0  0  0
  7  9  1  0  0  0  0
  9 10  1  0  0  0  0
  9 42  1  0  0  0  0
 10 11  1  0  0  0  0
 10 29  2  0  0  0  0
 11 12  2  0  0  0  0
 11 43  1  0  0  0  0
 12 13  1  0  0  0  0
 12 44  1  0  0  0  0
 13 14  1  0  0  0  0
 13 27  2  0  0  0  0
 14 15  1  0  0  0  0
 15 16  1  0  0  0  0
 15 26  2  0  0  0  0
 16 17  2  0  0  0  0
 16 45  1  0  0  0  0
 17 18  1  0  0  0  0
 17 46  1  0  0  0  0
 18 19  2  0  0  0  0
 19 20  1  0  0  0  0
 19 26  1  0  0  0  0
 20 21  1  0  0  0  0
 20 47  1  0  0  0  0
 21 22  2  0  0  0  0
 21 23  1  0  0  0  0
 23 24  1  0  0  0  0
 23 25  1  0  0  0  0
 23 48  1  0  0  0  0
 24 25  1  0  0  0  0
 24 49  1  0  0  0  0
 24 50  1  0  0  0  0
 25 51  1  0  0  0  0
 25 52  1  0  0  0  0
 26 53  1  0  0  0  0
 27 28  1  0  0  0  0
 27 29  1  0  0  0  0
 29 54  1  0  0  0  0
 30 31  1  0  0  0  0
 30 55  1  0  0  0  0
 31 32  1  0  0  0  0
 32 33  1  0  0  0  0
 32 34  1  0  0  0  0
 32 35  1  0  0  0  0
M  END
$$$$
