CHEMBL3393803
 OpenBabel04072215363D

 49 52  0  0  0  0  0  0  0  0999 V2000
    1.2689    0.7966   -0.0229 O   0  0  0  0  0  0  0  0  0  0  0  0
    2.3883    0.2956   -0.0867 C   0  0  0  0  0  0  0  0  0  0  0  0
    2.9284   -0.3487   -1.1887 N   0  0  0  0  0  0  0  0  0  0  0  0
    2.2621   -0.4830   -2.4366 C   0  0  0  0  0  0  0  0  0  0  0  0
    1.1718    0.3091   -2.7988 C   0  0  0  0  0  0  0  0  0  0  0  0
    0.5040    0.1084   -4.0079 C   0  0  0  0  0  0  0  0  0  0  0  0
    0.9148   -0.8907   -4.8912 C   0  0  0  0  0  0  0  0  0  0  0  0
    0.0106   -1.0181   -6.3595 Cl  0  0  0  0  0  0  0  0  0  0  0  0
    2.0176   -1.6907   -4.5672 C   0  0  0  0  0  0  0  0  0  0  0  0
    2.5647   -2.7898   -5.4212 C   0  0  0  0  0  0  0  0  0  0  0  0
    3.7524   -3.0704   -5.2782 O   0  0  0  0  0  0  0  0  0  0  0  0
    1.6979   -3.4173   -6.3029 N   0  0  0  0  0  0  0  0  0  0  0  0
    2.0175   -4.4779   -7.1826 C   0  0  0  0  0  0  0  0  0  0  0  0
    3.1797   -5.2342   -7.0867 C   0  0  0  0  0  0  0  0  0  0  0  0
    3.4348   -6.2391   -8.0178 C   0  0  0  0  0  0  0  0  0  0  0  0
    2.5153   -6.4680   -9.0321 C   0  0  0  0  0  0  0  0  0  0  0  0
    2.7692   -7.4877  -10.0473 C   0  0  0  0  0  0  0  0  0  0  0  0
    3.7901   -8.3287  -10.1006 N   0  0  0  0  0  0  0  0  0  0  0  0
    3.6010   -9.0856  -11.2274 C   0  0  0  0  0  0  0  0  0  0  0  0
    2.4559   -8.7037  -11.8818 C   0  0  0  0  0  0  0  0  0  0  0  0
    1.9395   -7.6889  -11.1254 N   0  0  0  0  0  0  0  0  0  0  0  0
    1.3544   -5.7737   -9.1496 N   0  0  0  0  0  0  0  0  0  0  0  0
    1.1366   -4.8074   -8.2164 C   0  0  0  0  0  0  0  0  0  0  0  0
    2.7001   -1.4561   -3.3434 C   0  0  0  0  0  0  0  0  0  0  0  0
    3.1878    0.3301    1.1664 C   0  0  0  0  0  0  0  0  0  0  0  0
    2.4839    0.2335    2.3720 C   0  0  0  0  0  0  0  0  0  0  0  0
    3.1427    0.3854    3.5897 C   0  0  0  0  0  0  0  0  0  0  0  0
    4.5160    0.6468    3.6242 C   0  0  0  0  0  0  0  0  0  0  0  0
    5.2086    0.8469    5.1910 Cl  0  0  0  0  0  0  0  0  0  0  0  0
    5.2468    0.7498    2.4309 C   0  0  0  0  0  0  0  0  0  0  0  0
    6.7242    1.0535    2.3736 C   0  0  0  0  0  0  0  0  0  0  0  0
    7.3519    1.2760    3.5556 F   0  0  0  0  0  0  0  0  0  0  0  0
    7.4145    0.0395    1.7768 F   0  0  0  0  0  0  0  0  0  0  0  0
    6.9781    2.1581    1.6140 F   0  0  0  0  0  0  0  0  0  0  0  0
    4.5635    0.5799    1.1948 C   0  0  0  0  0  0  0  0  0  0  0  0
    3.7657   -0.9016   -1.0531 H   0  0  0  0  0  0  0  0  0  0  0  0
    0.8162    1.1154   -2.1641 H   0  0  0  0  0  0  0  0  0  0  0  0
   -0.3432    0.7488   -4.2460 H   0  0  0  0  0  0  0  0  0  0  0  0
    0.7742   -3.0125   -6.4116 H   0  0  0  0  0  0  0  0  0  0  0  0
    3.9058   -5.0792   -6.2962 H   0  0  0  0  0  0  0  0  0  0  0  0
    4.3452   -6.8282   -7.9549 H   0  0  0  0  0  0  0  0  0  0  0  0
    4.3019   -9.8623  -11.5051 H   0  0  0  0  0  0  0  0  0  0  0  0
    1.9818   -9.0532  -12.7876 H   0  0  0  0  0  0  0  0  0  0  0  0
    1.0991   -7.1531  -11.2961 H   0  0  0  0  0  0  0  0  0  0  0  0
    0.2001   -4.2707   -8.3495 H   0  0  0  0  0  0  0  0  0  0  0  0
    3.5628   -2.0739   -3.0969 H   0  0  0  0  0  0  0  0  0  0  0  0
    1.4076    0.0652    2.3653 H   0  0  0  0  0  0  0  0  0  0  0  0
    2.5676    0.3204    4.5118 H   0  0  0  0  0  0  0  0  0  0  0  0
    5.1153    0.7046    0.2631 H   0  0  0  0  0  0  0  0  0  0  0  0
  1  2  2  0  0  0  0
  2  3  1  0  0  0  0
  2 25  1  0  0  0  0
  3  4  1  0  0  0  0
  3 36  1  0  0  0  0
  4  5  1  0  0  0  0
  4 24  2  0  0  0  0
  5  6  2  0  0  0  0
  5 37  1  0  0  0  0
  6  7  1  0  0  0  0
  6 38  1  0  0  0  0
  7  8  1  0  0  0  0
  7  9  2  0  0  0  0
  9 10  1  0  0  0  0
  9 24  1  0  0  0  0
 10 11  2  0  0  0  0
 10 12  1  0  0  0  0
 12 13  1  0  0  0  0
 12 39  1  0  0  0  0
 13 14  1  0  0  0  0
 13 23  2  0  0  0  0
 14 15  2  0  0  0  0
 14 40  1  0  0  0  0
 15 16  1  0  0  0  0
 15 41  1  0  0  0  0
 16 17  1  0  0  0  0
 16 22  2  0  0  0  0
 17 18  2  0  0  0  0
 17 21  1  0  0  0  0
 18 19  1  0  0  0  0
 19 20  2  0  0  0  0
 19 42  1  0  0  0  0
 20 21  1  0  0  0  0
 20 43  1  0  0  0  0
 21 44  1  0  0  0  0
 22 23  1  0  0  0  0
 23 45  1  0  0  0  0
 24 46  1  0  0  0  0
 25 26  1  0  0  0  0
 25 35  2  0  0  0  0
 26 27  2  0  0  0  0
 26 47  1  0  0  0  0
 27 28  1  0  0  0  0
 27 48  1  0  0  0  0
 28 29  1  0  0  0  0
 28 30  2  0  0  0  0
 30 31  1  0  0  0  0
 30 35  1  0  0  0  0
 31 32  1  0  0  0  0
 31 33  1  0  0  0  0
 31 34  1  0  0  0  0
 35 49  1  0  0  0  0
M  END
$$$$
