CHEMBL3287308
 OpenBabel04072215363D

 70 74  0  0  0  0  0  0  0  0999 V2000
    7.1274    6.9209   -5.1549 C   0  0  0  0  0  0  0  0  0  0  0  0
    7.5305    8.5388   -4.5331 S   0  0  0  0  0  0  0  0  0  0  0  0
    7.5206    9.4702   -5.6460 O   0  0  0  0  0  0  0  0  0  0  0  0
    6.6593    8.7722   -3.3929 O   0  0  0  0  0  0  0  0  0  0  0  0
    9.1956    8.3985   -3.8908 C   0  0  0  0  0  0  0  0  0  0  0  0
   10.1663    7.9981   -4.9664 C   0  0  0  0  0  0  0  0  0  0  0  0
   10.7791    8.9541   -5.7818 C   0  0  0  0  0  0  0  0  0  0  0  0
   11.6961    8.5669   -6.7600 C   0  0  0  0  0  0  0  0  0  0  0  0
   11.9968    7.2170   -6.9388 C   0  0  0  0  0  0  0  0  0  0  0  0
   11.3631    6.2402   -6.1684 C   0  0  0  0  0  0  0  0  0  0  0  0
   11.7039    4.8877   -6.3488 N   0  0  0  0  0  0  0  0  0  0  0  0
   10.8599    3.8018   -6.1077 C   0  0  0  0  0  0  0  0  0  0  0  0
    9.5485    3.8814   -6.3952 N   0  0  0  0  0  0  0  0  0  0  0  0
    8.8033    2.7775   -6.2080 C   0  0  0  0  0  0  0  0  0  0  0  0
    9.3106    1.5989   -5.7340 C   0  0  0  0  0  0  0  0  0  0  0  0
   10.6575    1.6173   -5.4759 C   0  0  0  0  0  0  0  0  0  0  0  0
   11.2220    0.4216   -5.0482 O   0  0  0  0  0  0  0  0  0  0  0  0
   12.5530    0.2228   -5.3331 C   0  0  0  0  0  0  0  0  0  0  0  0
   13.3207   -0.3721   -4.3385 C   0  0  0  0  0  0  0  0  0  0  0  0
   14.6851   -0.5811   -4.5553 C   0  0  0  0  0  0  0  0  0  0  0  0
   15.2971   -0.1969   -5.7574 C   0  0  0  0  0  0  0  0  0  0  0  0
   16.6845   -0.3175   -5.9923 N   0  0  0  0  0  0  0  0  0  0  0  0
   17.6264   -0.7516   -5.0827 C   0  0  0  0  0  0  0  0  0  0  0  0
   17.4457   -1.1242   -3.9322 O   0  0  0  0  0  0  0  0  0  0  0  0
   19.0389   -0.7202   -5.5730 C   0  0  0  0  0  0  0  0  0  0  0  0
   19.7460    0.5817   -5.3535 C   0  0  0  0  0  0  0  0  0  0  0  0
   19.9597    1.3028   -6.3209 O   0  0  0  0  0  0  0  0  0  0  0  0
   20.1114    0.8448   -4.0459 N   0  0  0  0  0  0  0  0  0  0  0  0
   20.7368    2.0483   -3.6709 C   0  0  0  0  0  0  0  0  0  0  0  0
   20.3176    3.2770   -4.1901 C   0  0  0  0  0  0  0  0  0  0  0  0
   21.0047    4.4515   -3.8765 C   0  0  0  0  0  0  0  0  0  0  0  0
   22.1428    4.4087   -3.0614 C   0  0  0  0  0  0  0  0  0  0  0  0
   22.9566    5.6528   -2.7990 C   0  0  0  0  0  0  0  0  0  0  0  0
   22.4427    6.7753   -3.3761 F   0  0  0  0  0  0  0  0  0  0  0  0
   23.0684    5.9344   -1.4715 F   0  0  0  0  0  0  0  0  0  0  0  0
   24.2320    5.5465   -3.2664 F   0  0  0  0  0  0  0  0  0  0  0  0
   22.5325    3.1756   -2.5108 C   0  0  0  0  0  0  0  0  0  0  0  0
   21.8115    2.0068   -2.7844 C   0  0  0  0  0  0  0  0  0  0  0  0
   19.4828   -1.5213   -6.8006 C   0  0  0  0  0  0  0  0  0  0  0  0
   19.7774   -2.0549   -5.4383 C   0  0  0  0  0  0  0  0  0  0  0  0
   14.4976    0.3513   -6.7710 C   0  0  0  0  0  0  0  0  0  0  0  0
   13.1328    0.5437   -6.5666 C   0  0  0  0  0  0  0  0  0  0  0  0
   11.4411    2.7037   -5.6251 N   0  0  0  0  0  0  0  0  0  0  0  0
   10.4802    6.6484   -5.1588 C   0  0  0  0  0  0  0  0  0  0  0  0
    6.0892    6.9408   -5.4946 H   0  0  0  0  0  0  0  0  0  0  0  0
    7.2347    6.1969   -4.3441 H   0  0  0  0  0  0  0  0  0  0  0  0
    7.7768    6.6718   -5.9940 H   0  0  0  0  0  0  0  0  0  0  0  0
    9.1783    7.6671   -3.0759 H   0  0  0  0  0  0  0  0  0  0  0  0
    9.4667    9.3681   -3.4620 H   0  0  0  0  0  0  0  0  0  0  0  0
   10.5479   10.0132   -5.6649 H   0  0  0  0  0  0  0  0  0  0  0  0
   12.1703    9.3165   -7.3888 H   0  0  0  0  0  0  0  0  0  0  0  0
   12.7051    6.9255   -7.7133 H   0  0  0  0  0  0  0  0  0  0  0  0
   12.6005    4.6555   -5.9339 H   0  0  0  0  0  0  0  0  0  0  0  0
    7.7563    2.8744   -6.4787 H   0  0  0  0  0  0  0  0  0  0  0  0
    8.7064    0.7144   -5.6005 H   0  0  0  0  0  0  0  0  0  0  0  0
   12.8813   -0.6587   -3.3941 H   0  0  0  0  0  0  0  0  0  0  0  0
   15.2483   -1.0340   -3.7475 H   0  0  0  0  0  0  0  0  0  0  0  0
   17.0283    0.0093   -6.8875 H   0  0  0  0  0  0  0  0  0  0  0  0
   20.1271    0.0666   -3.3967 H   0  0  0  0  0  0  0  0  0  0  0  0
   19.4441    3.3362   -4.8359 H   0  0  0  0  0  0  0  0  0  0  0  0
   20.6578    5.3952   -4.2951 H   0  0  0  0  0  0  0  0  0  0  0  0
   23.4231    3.1180   -1.8862 H   0  0  0  0  0  0  0  0  0  0  0  0
   22.1549    1.0629   -2.3702 H   0  0  0  0  0  0  0  0  0  0  0  0
   20.3384   -1.1709   -7.3739 H   0  0  0  0  0  0  0  0  0  0  0  0
   18.7303   -2.0107   -7.4059 H   0  0  0  0  0  0  0  0  0  0  0  0
   20.7978   -2.0528   -5.0778 H   0  0  0  0  0  0  0  0  0  0  0  0
   19.2045   -2.9234   -5.1222 H   0  0  0  0  0  0  0  0  0  0  0  0
   14.9305    0.6639   -7.7187 H   0  0  0  0  0  0  0  0  0  0  0  0
   12.5335    0.9767   -7.3598 H   0  0  0  0  0  0  0  0  0  0  0  0
   10.0227    5.8923   -4.5242 H   0  0  0  0  0  0  0  0  0  0  0  0
  1  2  1  0  0  0  0
  1 45  1  0  0  0  0
  1 46  1  0  0  0  0
  1 47  1  0  0  0  0
  2  3  2  0  0  0  0
  2  4  2  0  0  0  0
  2  5  1  0  0  0  0
  5  6  1  0  0  0  0
  5 48  1  0  0  0  0
  5 49  1  0  0  0  0
  6  7  1  0  0  0  0
  6 44  2  0  0  0  0
  7  8  2  0  0  0  0
  7 50  1  0  0  0  0
  8  9  1  0  0  0  0
  8 51  1  0  0  0  0
  9 10  2  0  0  0  0
  9 52  1  0  0  0  0
 10 11  1  0  0  0  0
 10 44  1  0  0  0  0
 11 12  1  0  0  0  0
 11 53  1  0  0  0  0
 12 13  1  0  0  0  0
 12 43  2  0  0  0  0
 13 14  2  0  0  0  0
 14 15  1  0  0  0  0
 14 54  1  0  0  0  0
 15 16  2  0  0  0  0
 15 55  1  0  0  0  0
 16 17  1  0  0  0  0
 16 43  1  0  0  0  0
 17 18  1  0  0  0  0
 18 19  1  0  0  0  0
 18 42  2  0  0  0  0
 19 20  2  0  0  0  0
 19 56  1  0  0  0  0
 20 21  1  0  0  0  0
 20 57  1  0  0  0  0
 21 22  1  0  0  0  0
 21 41  2  0  0  0  0
 22 23  1  0  0  0  0
 22 58  1  0  0  0  0
 23 24  2  0  0  0  0
 23 25  1  0  0  0  0
 25 26  1  0  0  0  0
 25 39  1  0  0  0  0
 25 40  1  0  0  0  0
 26 27  2  0  0  0  0
 26 28  1  0  0  0  0
 28 29  1  0  0  0  0
 28 59  1  0  0  0  0
 29 30  1  0  0  0  0
 29 38  2  0  0  0  0
 30 31  2  0  0  0  0
 30 60  1  0  0  0  0
 31 32  1  0  0  0  0
 31 61  1  0  0  0  0
 32 33  1  0  0  0  0
 32 37  2  0  0  0  0
 33 34  1  0  0  0  0
 33 35  1  0  0  0  0
 33 36  1  0  0  0  0
 37 38  1  0  0  0  0
 37 62  1  0  0  0  0
 38 63  1  0  0  0  0
 39 40  1  0  0  0  0
 39 64  1  0  0  0  0
 39 65  1  0  0  0  0
 40 66  1  0  0  0  0
 40 67  1  0  0  0  0
 41 42  1  0  0  0  0
 41 68  1  0  0  0  0
 42 69  1  0  0  0  0
 44 70  1  0  0  0  0
M  END
$$$$
