CHEMBL3690380
 OpenBabel04072215373D

 62 65  0  0  0  0  0  0  0  0999 V2000
    4.6233    2.3632   -2.3784 N   0  0  0  0  0  0  0  0  0  0  0  0
    5.3072    2.2543   -1.2786 C   0  0  0  0  0  0  0  0  0  0  0  0
    4.9551    3.0981   -0.0311 C   0  0  0  0  0  0  0  0  0  0  0  0
    3.8209    4.0778   -0.1547 C   0  0  0  0  0  0  0  0  0  0  0  0
    2.5232    3.7801   -0.3613 C   0  0  0  0  0  0  0  0  0  0  0  0
    2.0565    2.4918   -0.5240 N   0  0  0  0  0  0  0  0  0  0  0  0
    1.5240    4.8585   -0.4535 C   0  0  0  0  0  0  0  0  0  0  0  0
    0.3275    4.8699    0.3962 C   0  0  0  0  0  0  0  0  0  0  0  0
   -0.5965    5.8370    0.2609 C   0  0  0  0  0  0  0  0  0  0  0  0
   -0.4038    6.8644   -0.6706 N   0  0  0  0  0  0  0  0  0  0  0  0
   -1.1538    8.0090   -0.9675 C   0  0  0  0  0  0  0  0  0  0  0  0
   -2.3561    8.5086   -0.2731 C   0  0  0  0  0  0  0  0  0  0  0  0
   -2.5175    8.2980    1.1008 C   0  0  0  0  0  0  0  0  0  0  0  0
   -3.6416    8.7602    1.7723 C   0  0  0  0  0  0  0  0  0  0  0  0
   -4.5947    9.5129    1.0955 C   0  0  0  0  0  0  0  0  0  0  0  0
   -4.4379    9.8256   -0.2551 C   0  0  0  0  0  0  0  0  0  0  0  0
   -5.3467   10.6808   -0.9421 N   0  0  0  0  0  0  0  0  0  0  0  0
   -6.4031   11.3546   -0.3748 C   0  0  0  0  0  0  0  0  0  0  0  0
   -6.7490   11.3389    0.8015 O   0  0  0  0  0  0  0  0  0  0  0  0
   -7.1397   12.0783   -1.2880 N   0  0  0  0  0  0  0  0  0  0  0  0
   -8.2958   12.8449   -0.7870 C   0  0  0  0  0  0  0  0  0  0  0  0
   -7.9862   14.1986   -0.1296 C   0  0  0  0  0  0  0  0  0  0  0  0
   -6.6852   14.5460   -0.2596 F   0  0  0  0  0  0  0  0  0  0  0  0
   -8.7119   15.1758   -0.7319 F   0  0  0  0  0  0  0  0  0  0  0  0
   -8.3015   14.2224    1.1817 F   0  0  0  0  0  0  0  0  0  0  0  0
   -3.3313    9.2872   -0.9423 C   0  0  0  0  0  0  0  0  0  0  0  0
   -0.4559    8.5909   -2.0171 C   0  0  0  0  0  0  0  0  0  0  0  0
    0.6730    7.8942   -2.3491 N   0  0  0  0  0  0  0  0  0  0  0  0
    0.7039    6.8769   -1.5190 C   0  0  0  0  0  0  0  0  0  0  0  0
    1.6657    5.8333   -1.3841 C   0  0  0  0  0  0  0  0  0  0  0  0
    6.3589    1.3575   -1.2233 N   0  0  0  0  0  0  0  0  0  0  0  0
    6.7718    0.5790   -2.4048 C   0  0  0  0  0  0  0  0  0  0  0  0
    6.6848   -0.9162   -2.0788 C   0  0  0  0  0  0  0  0  0  0  0  0
    7.5084   -1.2433   -0.9451 O   0  0  0  0  0  0  0  0  0  0  0  0
    7.0828   -0.5027    0.2110 C   0  0  0  0  0  0  0  0  0  0  0  0
    7.1380    1.0161   -0.0279 C   0  0  0  0  0  0  0  0  0  0  0  0
    3.8962    3.0786   -2.2967 H   0  0  0  0  0  0  0  0  0  0  0  0
    5.8600    3.6593    0.2345 H   0  0  0  0  0  0  0  0  0  0  0  0
    4.7467    2.4175    0.8026 H   0  0  0  0  0  0  0  0  0  0  0  0
    4.1087    5.1188   -0.0151 H   0  0  0  0  0  0  0  0  0  0  0  0
    2.7658    1.8323   -0.8434 H   0  0  0  0  0  0  0  0  0  0  0  0
    1.2313    2.4456   -1.1193 H   0  0  0  0  0  0  0  0  0  0  0  0
    0.2144    4.0746    1.1276 H   0  0  0  0  0  0  0  0  0  0  0  0
   -1.4942    5.8391    0.8598 H   0  0  0  0  0  0  0  0  0  0  0  0
   -1.7611    7.7946    1.6936 H   0  0  0  0  0  0  0  0  0  0  0  0
   -3.7712    8.5602    2.8294 H   0  0  0  0  0  0  0  0  0  0  0  0
   -5.4418    9.8565    1.6780 H   0  0  0  0  0  0  0  0  0  0  0  0
   -5.1731   10.8320   -1.9248 H   0  0  0  0  0  0  0  0  0  0  0  0
   -6.6424   12.4614   -2.0776 H   0  0  0  0  0  0  0  0  0  0  0  0
   -8.8401   12.2216   -0.0662 H   0  0  0  0  0  0  0  0  0  0  0  0
   -8.9606   12.9922   -1.6431 H   0  0  0  0  0  0  0  0  0  0  0  0
   -3.2123    9.4897   -2.0046 H   0  0  0  0  0  0  0  0  0  0  0  0
   -0.6988    9.5114   -2.5329 H   0  0  0  0  0  0  0  0  0  0  0  0
    2.5099    5.8538   -2.0654 H   0  0  0  0  0  0  0  0  0  0  0  0
    7.8086    0.8449   -2.6445 H   0  0  0  0  0  0  0  0  0  0  0  0
    6.1696    0.7925   -3.2932 H   0  0  0  0  0  0  0  0  0  0  0  0
    7.0399   -1.5065   -2.9289 H   0  0  0  0  0  0  0  0  0  0  0  0
    5.6511   -1.2161   -1.8673 H   0  0  0  0  0  0  0  0  0  0  0  0
    7.7485   -0.7726    1.0374 H   0  0  0  0  0  0  0  0  0  0  0  0
    6.0689   -0.8207    0.4801 H   0  0  0  0  0  0  0  0  0  0  0  0
    8.1769    1.3233   -0.1954 H   0  0  0  0  0  0  0  0  0  0  0  0
    6.7883    1.5302    0.8706 H   0  0  0  0  0  0  0  0  0  0  0  0
  1  2  2  0  0  0  0
  1 37  1  0  0  0  0
  2  3  1  0  0  0  0
  2 31  1  0  0  0  0
  3  4  1  0  0  0  0
  3 38  1  0  0  0  0
  3 39  1  0  0  0  0
  4  5  2  0  0  0  0
  4 40  1  0  0  0  0
  5  6  1  0  0  0  0
  5  7  1  0  0  0  0
  6 41  1  0  0  0  0
  6 42  1  0  0  0  0
  7  8  1  0  0  0  0
  7 30  2  0  0  0  0
  8  9  2  0  0  0  0
  8 43  1  0  0  0  0
  9 10  1  0  0  0  0
  9 44  1  0  0  0  0
 10 11  1  0  0  0  0
 10 29  1  0  0  0  0
 11 12  1  0  0  0  0
 11 27  2  0  0  0  0
 12 13  1  0  0  0  0
 12 26  2  0  0  0  0
 13 14  2  0  0  0  0
 13 45  1  0  0  0  0
 14 15  1  0  0  0  0
 14 46  1  0  0  0  0
 15 16  2  0  0  0  0
 15 47  1  0  0  0  0
 16 17  1  0  0  0  0
 16 26  1  0  0  0  0
 17 18  1  0  0  0  0
 17 48  1  0  0  0  0
 18 19  2  0  0  0  0
 18 20  1  0  0  0  0
 20 21  1  0  0  0  0
 20 49  1  0  0  0  0
 21 22  1  0  0  0  0
 21 50  1  0  0  0  0
 21 51  1  0  0  0  0
 22 23  1  0  0  0  0
 22 24  1  0  0  0  0
 22 25  1  0  0  0  0
 26 52  1  0  0  0  0
 27 28  1  0  0  0  0
 27 53  1  0  0  0  0
 28 29  2  0  0  0  0
 29 30  1  0  0  0  0
 30 54  1  0  0  0  0
 31 32  1  0  0  0  0
 31 36  1  0  0  0  0
 32 33  1  0  0  0  0
 32 55  1  0  0  0  0
 32 56  1  0  0  0  0
 33 34  1  0  0  0  0
 33 57  1  0  0  0  0
 33 58  1  0  0  0  0
 34 35  1  0  0  0  0
 35 36  1  0  0  0  0
 35 59  1  0  0  0  0
 35 60  1  0  0  0  0
 36 61  1  0  0  0  0
 36 62  1  0  0  0  0
M  END
$$$$
