CHEMBL190473
 OpenBabel04072215363D

 52 55  0  0  0  0  0  0  0  0999 V2000
    9.8976   -4.4226    5.9581 Cl  0  0  0  0  0  0  0  0  0  0  0  0
    9.4416   -3.5436    4.5495 C   0  0  0  0  0  0  0  0  0  0  0  0
   10.4223   -2.9194    3.7802 C   0  0  0  0  0  0  0  0  0  0  0  0
   10.0528   -2.1967    2.6498 C   0  0  0  0  0  0  0  0  0  0  0  0
    8.7066   -2.1133    2.2869 C   0  0  0  0  0  0  0  0  0  0  0  0
    7.7172   -2.7668    3.0356 C   0  0  0  0  0  0  0  0  0  0  0  0
    6.3349   -2.6113    2.7467 N   0  0  0  0  0  0  0  0  0  0  0  0
    5.8078   -2.5324    1.4351 C   0  0  0  0  0  0  0  0  0  0  0  0
    4.5536   -1.9604    1.2178 C   0  0  0  0  0  0  0  0  0  0  0  0
    3.9560   -1.8908    0.0042 N   0  0  0  0  0  0  0  0  0  0  0  0
    4.6559   -2.4605   -1.0053 C   0  0  0  0  0  0  0  0  0  0  0  0
    5.8981   -3.0647   -0.8301 C   0  0  0  0  0  0  0  0  0  0  0  0
    6.6619   -3.6864   -1.9180 C   0  0  0  0  0  0  0  0  0  0  0  0
    7.4649   -4.8052   -1.6929 C   0  0  0  0  0  0  0  0  0  0  0  0
    8.1765   -5.4495   -2.6486 N   0  0  0  0  0  0  0  0  0  0  0  0
    8.1211   -4.9242   -3.8935 C   0  0  0  0  0  0  0  0  0  0  0  0
    7.3953   -3.7874   -4.2514 C   0  0  0  0  0  0  0  0  0  0  0  0
    7.4949   -3.2820   -5.5426 N   0  0  0  0  0  0  0  0  0  0  0  0
    7.1398   -1.9059   -5.8505 C   0  0  0  0  0  0  0  0  0  0  0  0
    7.9354   -1.4504   -7.0737 C   0  0  0  0  0  0  0  0  0  0  0  0
    7.6852    0.0291   -7.3625 C   0  0  0  0  0  0  0  0  0  0  0  0
    8.4532    0.5183   -8.5615 C   0  0  0  0  0  0  0  0  0  0  0  0
    7.8964    0.4322   -9.8471 C   0  0  0  0  0  0  0  0  0  0  0  0
    8.5991    0.9005  -10.9556 C   0  0  0  0  0  0  0  0  0  0  0  0
    9.8688    1.4524  -10.7960 C   0  0  0  0  0  0  0  0  0  0  0  0
   10.4390    1.5279   -9.5267 C   0  0  0  0  0  0  0  0  0  0  0  0
    9.7389    1.0579   -8.4148 C   0  0  0  0  0  0  0  0  0  0  0  0
    6.6507   -3.1870   -3.2326 C   0  0  0  0  0  0  0  0  0  0  0  0
    6.4705   -3.1045    0.4008 N   0  0  0  0  0  0  0  0  0  0  0  0
    8.0940   -3.4538    4.1939 C   0  0  0  0  0  0  0  0  0  0  0  0
   11.4700   -2.9878    4.0584 H   0  0  0  0  0  0  0  0  0  0  0  0
   10.8079   -1.6982    2.0481 H   0  0  0  0  0  0  0  0  0  0  0  0
    8.4394   -1.5343    1.4055 H   0  0  0  0  0  0  0  0  0  0  0  0
    5.9919   -1.8300    3.3021 H   0  0  0  0  0  0  0  0  0  0  0  0
    3.9864   -1.5206    2.0311 H   0  0  0  0  0  0  0  0  0  0  0  0
    4.1654   -2.4276   -1.9724 H   0  0  0  0  0  0  0  0  0  0  0  0
    7.5590   -5.2362   -0.6979 H   0  0  0  0  0  0  0  0  0  0  0  0
    8.7380   -5.4368   -4.6265 H   0  0  0  0  0  0  0  0  0  0  0  0
    7.2595   -3.9638   -6.2614 H   0  0  0  0  0  0  0  0  0  0  0  0
    7.3943   -1.2447   -5.0128 H   0  0  0  0  0  0  0  0  0  0  0  0
    6.0628   -1.8262   -6.0363 H   0  0  0  0  0  0  0  0  0  0  0  0
    7.6657   -2.0637   -7.9428 H   0  0  0  0  0  0  0  0  0  0  0  0
    9.0064   -1.6186   -6.8977 H   0  0  0  0  0  0  0  0  0  0  0  0
    7.9601    0.6347   -6.4892 H   0  0  0  0  0  0  0  0  0  0  0  0
    6.6137    0.2054   -7.5230 H   0  0  0  0  0  0  0  0  0  0  0  0
    6.9057    0.0056   -9.9865 H   0  0  0  0  0  0  0  0  0  0  0  0
    8.1571    0.8383  -11.9461 H   0  0  0  0  0  0  0  0  0  0  0  0
   10.4127    1.8253  -11.6591 H   0  0  0  0  0  0  0  0  0  0  0  0
   11.4319    1.9538   -9.4022 H   0  0  0  0  0  0  0  0  0  0  0  0
   10.2005    1.1212   -7.4320 H   0  0  0  0  0  0  0  0  0  0  0  0
    6.0550   -2.3084   -3.4593 H   0  0  0  0  0  0  0  0  0  0  0  0
    7.3386   -3.9398    4.8046 H   0  0  0  0  0  0  0  0  0  0  0  0
  1  2  1  0  0  0  0
  2  3  1  0  0  0  0
  2 30  2  0  0  0  0
  3  4  2  0  0  0  0
  3 31  1  0  0  0  0
  4  5  1  0  0  0  0
  4 32  1  0  0  0  0
  5  6  2  0  0  0  0
  5 33  1  0  0  0  0
  6  7  1  0  0  0  0
  6 30  1  0  0  0  0
  7  8  1  0  0  0  0
  7 34  1  0  0  0  0
  8  9  1  0  0  0  0
  8 29  2  0  0  0  0
  9 10  2  0  0  0  0
  9 35  1  0  0  0  0
 10 11  1  0  0  0  0
 11 12  2  0  0  0  0
 11 36  1  0  0  0  0
 12 13  1  0  0  0  0
 12 29  1  0  0  0  0
 13 14  1  0  0  0  0
 13 28  2  0  0  0  0
 14 15  2  0  0  0  0
 14 37  1  0  0  0  0
 15 16  1  0  0  0  0
 16 17  2  0  0  0  0
 16 38  1  0  0  0  0
 17 18  1  0  0  0  0
 17 28  1  0  0  0  0
 18 19  1  0  0  0  0
 18 39  1  0  0  0  0
 19 20  1  0  0  0  0
 19 40  1  0  0  0  0
 19 41  1  0  0  0  0
 20 21  1  0  0  0  0
 20 42  1  0  0  0  0
 20 43  1  0  0  0  0
 21 22  1  0  0  0  0
 21 44  1  0  0  0  0
 21 45  1  0  0  0  0
 22 23  1  0  0  0  0
 22 27  2  0  0  0  0
 23 24  2  0  0  0  0
 23 46  1  0  0  0  0
 24 25  1  0  0  0  0
 24 47  1  0  0  0  0
 25 26  2  0  0  0  0
 25 48  1  0  0  0  0
 26 27  1  0  0  0  0
 26 49  1  0  0  0  0
 27 50  1  0  0  0  0
 28 51  1  0  0  0  0
 30 52  1  0  0  0  0
M  END
$$$$
