CHEMBL352977
 OpenBabel04072215363D

 58 62  0  0  0  0  0  0  0  0999 V2000
    2.8165   -0.4042   -1.1208 C   0  0  0  0  0  0  0  0  0  0  0  0
    2.5567   -0.1624    0.2572 O   0  0  0  0  0  0  0  0  0  0  0  0
    3.2248    0.8426    0.8912 C   0  0  0  0  0  0  0  0  0  0  0  0
    4.3857    1.4212    0.3708 C   0  0  0  0  0  0  0  0  0  0  0  0
    5.0145    2.5137    1.0006 C   0  0  0  0  0  0  0  0  0  0  0  0
    6.1376    3.1772    0.4735 C   0  0  0  0  0  0  0  0  0  0  0  0
    6.5525    2.8818   -0.8478 N   0  0  0  0  0  0  0  0  0  0  0  0
    7.8750    2.9471   -1.3518 C   0  0  0  0  0  0  0  0  0  0  0  0
    8.1262    3.3467   -2.6921 C   0  0  0  0  0  0  0  0  0  0  0  0
    6.8401    3.9972   -3.6563 Cl  0  0  0  0  0  0  0  0  0  0  0  0
    9.3936    3.2509   -3.2823 C   0  0  0  0  0  0  0  0  0  0  0  0
   10.4805    2.7518   -2.5644 C   0  0  0  0  0  0  0  0  0  0  0  0
   10.2360    2.4063   -1.2392 C   0  0  0  0  0  0  0  0  0  0  0  0
   11.1721    1.9205   -0.3775 O   0  0  0  0  0  0  0  0  0  0  0  0
   10.5452    1.6912    0.8026 C   0  0  0  0  0  0  0  0  0  0  0  0
    9.2127    2.0105    0.7082 C   0  0  0  0  0  0  0  0  0  0  0  0
    8.9962    2.4905   -0.6153 C   0  0  0  0  0  0  0  0  0  0  0  0
    6.7878    4.1235    1.1636 N   0  0  0  0  0  0  0  0  0  0  0  0
    6.2860    4.4398    2.3614 C   0  0  0  0  0  0  0  0  0  0  0  0
    5.1796    3.9270    2.9182 N   0  0  0  0  0  0  0  0  0  0  0  0
    4.5495    2.9704    2.2356 C   0  0  0  0  0  0  0  0  0  0  0  0
    3.4117    2.3714    2.7619 C   0  0  0  0  0  0  0  0  0  0  0  0
    2.7440    1.3129    2.1246 C   0  0  0  0  0  0  0  0  0  0  0  0
    1.6596    0.8509    2.8212 O   0  0  0  0  0  0  0  0  0  0  0  0
    1.3347   -0.5425    2.7576 C   0  0  0  0  0  0  0  0  0  0  0  0
    2.4699   -1.4550    3.2310 C   0  0  0  0  0  0  0  0  0  0  0  0
    2.8285   -1.1677    4.6939 C   0  0  0  0  0  0  0  0  0  0  0  0
    3.9309   -1.9982    5.2110 N   0  0  0  0  0  0  0  0  0  0  0  0
    4.1667   -1.7028    6.6471 C   0  0  0  0  0  0  0  0  0  0  0  0
    4.8540   -0.3472    6.9080 C   0  0  0  0  0  0  0  0  0  0  0  0
    6.0765   -0.2189    6.1703 O   0  0  0  0  0  0  0  0  0  0  0  0
    5.8488   -0.4124    4.7688 C   0  0  0  0  0  0  0  0  0  0  0  0
    5.2147   -1.7863    4.5025 C   0  0  0  0  0  0  0  0  0  0  0  0
    3.3965   -1.3268   -1.2222 H   0  0  0  0  0  0  0  0  0  0  0  0
    3.3197    0.4101   -1.6489 H   0  0  0  0  0  0  0  0  0  0  0  0
    1.8535   -0.5413   -1.6225 H   0  0  0  0  0  0  0  0  0  0  0  0
    4.8621    1.0053   -0.5083 H   0  0  0  0  0  0  0  0  0  0  0  0
    5.8726    3.2505   -1.5085 H   0  0  0  0  0  0  0  0  0  0  0  0
    9.5413    3.5545   -4.3165 H   0  0  0  0  0  0  0  0  0  0  0  0
   11.4644    2.6378   -3.0042 H   0  0  0  0  0  0  0  0  0  0  0  0
   11.1641    1.3075    1.6001 H   0  0  0  0  0  0  0  0  0  0  0  0
    8.4847    1.9256    1.5010 H   0  0  0  0  0  0  0  0  0  0  0  0
    6.8275    5.1814    2.9365 H   0  0  0  0  0  0  0  0  0  0  0  0
    3.0363    2.7294    3.7240 H   0  0  0  0  0  0  0  0  0  0  0  0
    0.9636   -0.8146    1.7658 H   0  0  0  0  0  0  0  0  0  0  0  0
    0.4775   -0.6863    3.4277 H   0  0  0  0  0  0  0  0  0  0  0  0
    3.3426   -1.2985    2.5930 H   0  0  0  0  0  0  0  0  0  0  0  0
    2.1728   -2.5030    3.1144 H   0  0  0  0  0  0  0  0  0  0  0  0
    1.9328   -1.3789    5.2934 H   0  0  0  0  0  0  0  0  0  0  0  0
    3.0396   -0.1017    4.8212 H   0  0  0  0  0  0  0  0  0  0  0  0
    4.8105   -2.4988    7.0429 H   0  0  0  0  0  0  0  0  0  0  0  0
    3.2282   -1.7632    7.2111 H   0  0  0  0  0  0  0  0  0  0  0  0
    5.1042   -0.2635    7.9705 H   0  0  0  0  0  0  0  0  0  0  0  0
    4.1977    0.4953    6.6627 H   0  0  0  0  0  0  0  0  0  0  0  0
    6.8189   -0.3518    4.2654 H   0  0  0  0  0  0  0  0  0  0  0  0
    5.2317    0.4062    4.3836 H   0  0  0  0  0  0  0  0  0  0  0  0
    5.9096   -2.5609    4.8529 H   0  0  0  0  0  0  0  0  0  0  0  0
    5.1165   -1.9584    3.4269 H   0  0  0  0  0  0  0  0  0  0  0  0
  1  2  1  0  0  0  0
  1 34  1  0  0  0  0
  1 35  1  0  0  0  0
  1 36  1  0  0  0  0
  2  3  1  0  0  0  0
  3  4  1  0  0  0  0
  3 23  2  0  0  0  0
  4  5  2  0  0  0  0
  4 37  1  0  0  0  0
  5  6  1  0  0  0  0
  5 21  1  0  0  0  0
  6  7  1  0  0  0  0
  6 18  2  0  0  0  0
  7  8  1  0  0  0  0
  7 38  1  0  0  0  0
  8  9  1  0  0  0  0
  8 17  2  0  0  0  0
  9 10  1  0  0  0  0
  9 11  2  0  0  0  0
 11 12  1  0  0  0  0
 11 39  1  0  0  0  0
 12 13  2  0  0  0  0
 12 40  1  0  0  0  0
 13 14  1  0  0  0  0
 13 17  1  0  0  0  0
 14 15  1  0  0  0  0
 15 16  2  0  0  0  0
 15 41  1  0  0  0  0
 16 17  1  0  0  0  0
 16 42  1  0  0  0  0
 18 19  1  0  0  0  0
 19 20  2  0  0  0  0
 19 43  1  0  0  0  0
 20 21  1  0  0  0  0
 21 22  2  0  0  0  0
 22 23  1  0  0  0  0
 22 44  1  0  0  0  0
 23 24  1  0  0  0  0
 24 25  1  0  0  0  0
 25 26  1  0  0  0  0
 25 45  1  0  0  0  0
 25 46  1  0  0  0  0
 26 27  1  0  0  0  0
 26 47  1  0  0  0  0
 26 48  1  0  0  0  0
 27 28  1  0  0  0  0
 27 49  1  0  0  0  0
 27 50  1  0  0  0  0
 28 29  1  0  0  0  0
 28 33  1  0  0  0  0
 29 30  1  0  0  0  0
 29 51  1  0  0  0  0
 29 52  1  0  0  0  0
 30 31  1  0  0  0  0
 30 53  1  0  0  0  0
 30 54  1  0  0  0  0
 31 32  1  0  0  0  0
 32 33  1  0  0  0  0
 32 55  1  0  0  0  0
 32 56  1  0  0  0  0
 33 57  1  0  0  0  0
 33 58  1  0  0  0  0
M  END
$$$$
