CHEMBL1088027
 OpenBabel04072215363D

 58 62  0  0  0  0  0  0  0  0999 V2000
    2.4986    0.1381    0.0056 C   0  0  0  0  0  0  0  0  0  0  0  0
    0.9902    0.0641    0.0394 C   0  0  0  0  0  0  0  0  0  0  0  0
    0.2666    1.2533   -0.1350 C   0  0  0  0  0  0  0  0  0  0  0  0
   -1.1252    1.2333   -0.1718 C   0  0  0  0  0  0  0  0  0  0  0  0
   -1.8117    0.0180   -0.1282 C   0  0  0  0  0  0  0  0  0  0  0  0
   -3.3032    0.0394   -0.1440 C   0  0  0  0  0  0  0  0  0  0  0  0
   -3.8424    1.0523    0.2863 O   0  0  0  0  0  0  0  0  0  0  0  0
   -3.9518   -1.0971   -0.6172 N   0  0  0  0  0  0  0  0  0  0  0  0
   -5.3531   -1.3085   -0.6363 C   0  0  0  0  0  0  0  0  0  0  0  0
   -6.2866   -0.3068   -0.3782 C   0  0  0  0  0  0  0  0  0  0  0  0
   -7.6542   -0.5915   -0.3758 C   0  0  0  0  0  0  0  0  0  0  0  0
   -8.1072   -1.8908   -0.6001 C   0  0  0  0  0  0  0  0  0  0  0  0
   -7.1893   -2.9078   -0.8403 C   0  0  0  0  0  0  0  0  0  0  0  0
   -7.5061   -4.2241   -1.0366 O   0  0  0  0  0  0  0  0  0  0  0  0
   -8.7161   -4.6525   -0.4286 C   0  0  0  0  0  0  0  0  0  0  0  0
   -9.7500   -4.3535   -1.2539 F   0  0  0  0  0  0  0  0  0  0  0  0
   -8.6705   -6.0068   -0.3406 F   0  0  0  0  0  0  0  0  0  0  0  0
   -5.8198   -2.5976   -0.9066 C   0  0  0  0  0  0  0  0  0  0  0  0
   -1.0879   -1.1639    0.0378 C   0  0  0  0  0  0  0  0  0  0  0  0
    0.2946   -1.1584    0.2249 C   0  0  0  0  0  0  0  0  0  0  0  0
    1.0145   -2.3112    0.5806 N   0  0  0  0  0  0  0  0  0  0  0  0
    0.6834   -3.4730    1.2127 C   0  0  0  0  0  0  0  0  0  0  0  0
    1.6579   -4.1274    1.8163 N   0  0  0  0  0  0  0  0  0  0  0  0
    1.7800   -5.2463    1.0351 C   0  0  0  0  0  0  0  0  0  0  0  0
    2.8662   -6.1116    0.9069 C   0  0  0  0  0  0  0  0  0  0  0  0
    2.7957   -7.1170   -0.0648 C   0  0  0  0  0  0  0  0  0  0  0  0
    1.6434   -7.2911   -0.8364 C   0  0  0  0  0  0  0  0  0  0  0  0
    0.5195   -6.4734   -0.6732 C   0  0  0  0  0  0  0  0  0  0  0  0
    0.6365   -5.4292    0.2507 C   0  0  0  0  0  0  0  0  0  0  0  0
   -0.2070   -4.4289    0.7166 N   0  0  0  0  0  0  0  0  0  0  0  0
   -1.6228   -4.5229    0.8396 C   0  0  0  0  0  0  0  0  0  0  0  0
   -2.2968   -3.7444    1.7650 C   0  0  0  0  0  0  0  0  0  0  0  0
   -3.6669   -3.8955    1.8123 C   0  0  0  0  0  0  0  0  0  0  0  0
   -4.4473   -3.0663    2.6074 N   0  0  0  0  0  0  0  0  0  0  0  0
   -4.3287   -4.7627    1.0403 N   0  0  0  0  0  0  0  0  0  0  0  0
   -3.5914   -5.4972    0.2014 C   0  0  0  0  0  0  0  0  0  0  0  0
   -2.2651   -5.4180    0.0549 N   0  0  0  0  0  0  0  0  0  0  0  0
    2.8527    1.1706   -0.0867 H   0  0  0  0  0  0  0  0  0  0  0  0
    2.8784   -0.4152   -0.8613 H   0  0  0  0  0  0  0  0  0  0  0  0
    2.9392   -0.2690    0.9204 H   0  0  0  0  0  0  0  0  0  0  0  0
    0.7839    2.2070   -0.2222 H   0  0  0  0  0  0  0  0  0  0  0  0
   -1.6730    2.1703   -0.2487 H   0  0  0  0  0  0  0  0  0  0  0  0
   -3.3946   -1.8822   -0.9161 H   0  0  0  0  0  0  0  0  0  0  0  0
   -5.9866    0.7179   -0.1957 H   0  0  0  0  0  0  0  0  0  0  0  0
   -8.3642    0.2123   -0.1961 H   0  0  0  0  0  0  0  0  0  0  0  0
   -9.1785   -2.0666   -0.6012 H   0  0  0  0  0  0  0  0  0  0  0  0
   -8.8890   -4.2428    0.5734 H   0  0  0  0  0  0  0  0  0  0  0  0
   -5.1242   -3.4021   -1.1232 H   0  0  0  0  0  0  0  0  0  0  0  0
   -1.6152   -2.0969    0.0448 H   0  0  0  0  0  0  0  0  0  0  0  0
    1.9894   -2.0978    0.7723 H   0  0  0  0  0  0  0  0  0  0  0  0
    3.7609   -5.9574    1.4983 H   0  0  0  0  0  0  0  0  0  0  0  0
    3.6575   -7.7599   -0.2263 H   0  0  0  0  0  0  0  0  0  0  0  0
    1.6180   -8.0799   -1.5846 H   0  0  0  0  0  0  0  0  0  0  0  0
   -0.3766   -6.6174   -1.2671 H   0  0  0  0  0  0  0  0  0  0  0  0
   -1.8024   -3.0277    2.4086 H   0  0  0  0  0  0  0  0  0  0  0  0
   -4.1614   -3.0386    3.5783 H   0  0  0  0  0  0  0  0  0  0  0  0
   -5.4227   -3.3351    2.5013 H   0  0  0  0  0  0  0  0  0  0  0  0
   -4.1210   -6.1989   -0.4347 H   0  0  0  0  0  0  0  0  0  0  0  0
  1  2  1  0  0  0  0
  1 38  1  0  0  0  0
  1 39  1  0  0  0  0
  1 40  1  0  0  0  0
  2  3  1  0  0  0  0
  2 20  2  0  0  0  0
  3  4  2  0  0  0  0
  3 41  1  0  0  0  0
  4  5  1  0  0  0  0
  4 42  1  0  0  0  0
  5  6  1  0  0  0  0
  5 19  2  0  0  0  0
  6  7  2  0  0  0  0
  6  8  1  0  0  0  0
  8  9  1  0  0  0  0
  8 43  1  0  0  0  0
  9 10  1  0  0  0  0
  9 18  2  0  0  0  0
 10 11  2  0  0  0  0
 10 44  1  0  0  0  0
 11 12  1  0  0  0  0
 11 45  1  0  0  0  0
 12 13  2  0  0  0  0
 12 46  1  0  0  0  0
 13 14  1  0  0  0  0
 13 18  1  0  0  0  0
 14 15  1  0  0  0  0
 15 16  1  0  0  0  0
 15 17  1  0  0  0  0
 15 47  1  0  0  0  0
 18 48  1  0  0  0  0
 19 20  1  0  0  0  0
 19 49  1  0  0  0  0
 20 21  1  0  0  0  0
 21 22  1  0  0  0  0
 21 50  1  0  0  0  0
 22 23  2  0  0  0  0
 22 30  1  0  0  0  0
 23 24  1  0  0  0  0
 24 25  1  0  0  0  0
 24 29  2  0  0  0  0
 25 26  2  0  0  0  0
 25 51  1  0  0  0  0
 26 27  1  0  0  0  0
 26 52  1  0  0  0  0
 27 28  2  0  0  0  0
 27 53  1  0  0  0  0
 28 29  1  0  0  0  0
 28 54  1  0  0  0  0
 29 30  1  0  0  0  0
 30 31  1  0  0  0  0
 31 32  1  0  0  0  0
 31 37  2  0  0  0  0
 32 33  2  0  0  0  0
 32 55  1  0  0  0  0
 33 34  1  0  0  0  0
 33 35  1  0  0  0  0
 34 56  1  0  0  0  0
 34 57  1  0  0  0  0
 35 36  2  0  0  0  0
 36 37  1  0  0  0  0
 36 58  1  0  0  0  0
M  END
$$$$
