CHEMBL1086860
 OpenBabel04072215363D

 58 63  0  0  0  0  0  0  0  0999 V2000
    2.4771    0.2063   -0.5636 C   0  0  0  0  0  0  0  0  0  0  0  0
    1.0194    0.1181   -0.1965 C   0  0  0  0  0  0  0  0  0  0  0  0
    0.3217    1.3346   -0.1302 C   0  0  0  0  0  0  0  0  0  0  0  0
   -1.0564    1.3686    0.0257 C   0  0  0  0  0  0  0  0  0  0  0  0
   -1.7888    0.1968    0.0540 C   0  0  0  0  0  0  0  0  0  0  0  0
   -3.2057    0.1786    0.0347 N   0  0  0  0  0  0  0  0  0  0  0  0
   -3.9995    1.2606   -0.3165 C   0  0  0  0  0  0  0  0  0  0  0  0
   -3.5814    2.3554   -0.6823 O   0  0  0  0  0  0  0  0  0  0  0  0
   -5.4222    1.0562   -0.2533 C   0  0  0  0  0  0  0  0  0  0  0  0
   -6.2542   -0.0012    0.0472 C   0  0  0  0  0  0  0  0  0  0  0  0
   -7.5593    0.5128   -0.0891 C   0  0  0  0  0  0  0  0  0  0  0  0
   -8.8656   -0.2312    0.1313 C   0  0  0  0  0  0  0  0  0  0  0  0
   -8.9375   -1.3393    1.1565 C   0  0  0  0  0  0  0  0  0  0  0  0
   -8.9704   -1.6788   -0.2951 C   0  0  0  0  0  0  0  0  0  0  0  0
   -7.5681    1.7983   -0.4376 N   0  0  0  0  0  0  0  0  0  0  0  0
   -6.2681    2.1018   -0.5372 N   0  0  0  0  0  0  0  0  0  0  0  0
   -1.0910   -1.0238    0.1091 C   0  0  0  0  0  0  0  0  0  0  0  0
    0.3218   -1.0869    0.0558 C   0  0  0  0  0  0  0  0  0  0  0  0
    1.0263   -2.3078    0.2566 N   0  0  0  0  0  0  0  0  0  0  0  0
    0.5406   -3.4204    0.8917 C   0  0  0  0  0  0  0  0  0  0  0  0
   -0.7229   -3.7329    1.1032 N   0  0  0  0  0  0  0  0  0  0  0  0
   -0.7420   -4.9858    1.6315 C   0  0  0  0  0  0  0  0  0  0  0  0
   -1.8553   -5.7690    1.9767 C   0  0  0  0  0  0  0  0  0  0  0  0
   -1.6531   -7.0504    2.4940 C   0  0  0  0  0  0  0  0  0  0  0  0
   -0.3634   -7.5252    2.7085 C   0  0  0  0  0  0  0  0  0  0  0  0
    0.7565   -6.7410    2.4036 C   0  0  0  0  0  0  0  0  0  0  0  0
    0.5451   -5.4798    1.8115 C   0  0  0  0  0  0  0  0  0  0  0  0
    1.3752   -4.4598    1.3359 N   0  0  0  0  0  0  0  0  0  0  0  0
    2.8009   -4.4690    1.2611 C   0  0  0  0  0  0  0  0  0  0  0  0
    3.4619   -5.6670    1.0843 C   0  0  0  0  0  0  0  0  0  0  0  0
    4.8283   -5.6107    0.9508 C   0  0  0  0  0  0  0  0  0  0  0  0
    5.5465   -6.7827    0.7313 N   0  0  0  0  0  0  0  0  0  0  0  0
    5.5188   -4.4737    1.0593 N   0  0  0  0  0  0  0  0  0  0  0  0
    4.7966   -3.3605    1.2453 C   0  0  0  0  0  0  0  0  0  0  0  0
    3.4574   -3.2856    1.3019 N   0  0  0  0  0  0  0  0  0  0  0  0
    2.7457    1.2389   -0.8274 H   0  0  0  0  0  0  0  0  0  0  0  0
    2.6819   -0.3927   -1.4568 H   0  0  0  0  0  0  0  0  0  0  0  0
    3.1235   -0.0988    0.2608 H   0  0  0  0  0  0  0  0  0  0  0  0
    0.8510    2.2831   -0.2185 H   0  0  0  0  0  0  0  0  0  0  0  0
   -1.5235    2.3503    0.0928 H   0  0  0  0  0  0  0  0  0  0  0  0
   -3.6534   -0.7145    0.1729 H   0  0  0  0  0  0  0  0  0  0  0  0
   -5.9692   -1.0071    0.3212 H   0  0  0  0  0  0  0  0  0  0  0  0
   -9.7505    0.3860    0.0068 H   0  0  0  0  0  0  0  0  0  0  0  0
   -9.8568   -1.4315    1.7217 H   0  0  0  0  0  0  0  0  0  0  0  0
   -8.0499   -1.5825    1.7275 H   0  0  0  0  0  0  0  0  0  0  0  0
   -9.9124   -1.9916   -0.7316 H   0  0  0  0  0  0  0  0  0  0  0  0
   -8.1071   -2.1663   -0.7314 H   0  0  0  0  0  0  0  0  0  0  0  0
   -5.9959    3.0438   -0.7926 H   0  0  0  0  0  0  0  0  0  0  0  0
   -1.6684   -1.9406    0.1680 H   0  0  0  0  0  0  0  0  0  0  0  0
    2.0398   -2.1969    0.2435 H   0  0  0  0  0  0  0  0  0  0  0  0
   -2.8563   -5.3803    1.8250 H   0  0  0  0  0  0  0  0  0  0  0  0
   -2.5098   -7.6734    2.7393 H   0  0  0  0  0  0  0  0  0  0  0  0
   -0.2218   -8.5208    3.1256 H   0  0  0  0  0  0  0  0  0  0  0  0
    1.7437   -7.1288    2.6312 H   0  0  0  0  0  0  0  0  0  0  0  0
    2.9588   -6.6145    0.9654 H   0  0  0  0  0  0  0  0  0  0  0  0
    5.1733   -7.3299   -0.0392 H   0  0  0  0  0  0  0  0  0  0  0  0
    6.5215   -6.5285    0.5699 H   0  0  0  0  0  0  0  0  0  0  0  0
    5.3500   -2.4333    1.3538 H   0  0  0  0  0  0  0  0  0  0  0  0
  1  2  1  0  0  0  0
  1 36  1  0  0  0  0
  1 37  1  0  0  0  0
  1 38  1  0  0  0  0
  2  3  1  0  0  0  0
  2 18  2  0  0  0  0
  3  4  2  0  0  0  0
  3 39  1  0  0  0  0
  4  5  1  0  0  0  0
  4 40  1  0  0  0  0
  5  6  1  0  0  0  0
  5 17  2  0  0  0  0
  6  7  1  0  0  0  0
  6 41  1  0  0  0  0
  7  8  2  0  0  0  0
  7  9  1  0  0  0  0
  9 10  2  0  0  0  0
  9 16  1  0  0  0  0
 10 11  1  0  0  0  0
 10 42  1  0  0  0  0
 11 12  1  0  0  0  0
 11 15  2  0  0  0  0
 12 13  1  0  0  0  0
 12 14  1  0  0  0  0
 12 43  1  0  0  0  0
 13 14  1  0  0  0  0
 13 44  1  0  0  0  0
 13 45  1  0  0  0  0
 14 46  1  0  0  0  0
 14 47  1  0  0  0  0
 15 16  1  0  0  0  0
 16 48  1  0  0  0  0
 17 18  1  0  0  0  0
 17 49  1  0  0  0  0
 18 19  1  0  0  0  0
 19 20  1  0  0  0  0
 19 50  1  0  0  0  0
 20 21  2  0  0  0  0
 20 28  1  0  0  0  0
 21 22  1  0  0  0  0
 22 23  1  0  0  0  0
 22 27  2  0  0  0  0
 23 24  2  0  0  0  0
 23 51  1  0  0  0  0
 24 25  1  0  0  0  0
 24 52  1  0  0  0  0
 25 26  2  0  0  0  0
 25 53  1  0  0  0  0
 26 27  1  0  0  0  0
 26 54  1  0  0  0  0
 27 28  1  0  0  0  0
 28 29  1  0  0  0  0
 29 30  1  0  0  0  0
 29 35  2  0  0  0  0
 30 31  2  0  0  0  0
 30 55  1  0  0  0  0
 31 32  1  0  0  0  0
 31 33  1  0  0  0  0
 32 56  1  0  0  0  0
 32 57  1  0  0  0  0
 33 34  2  0  0  0  0
 34 35  1  0  0  0  0
 34 58  1  0  0  0  0
M  END
$$$$
