CHEMBL365937
 OpenBabel04072215373D

 42 44  0  0  0  0  0  0  0  0999 V2000
    2.9491   -0.8720    0.3770 O   0  0  0  0  0  0  0  0  0  0  0  0
    2.4990   -0.3024   -0.8442 C   0  0  0  0  0  0  0  0  0  0  0  0
    2.9942    1.1325   -0.9545 C   0  0  0  0  0  0  0  0  0  0  0  0
    4.5203    1.1861   -0.9657 C   0  0  0  0  0  0  0  0  0  0  0  0
    4.9683    2.5770   -1.0867 N   0  0  0  0  0  0  0  0  0  0  0  0
    6.3587    2.7877   -1.0889 C   0  0  0  0  0  0  0  0  0  0  0  0
    6.9026    3.9839   -0.6181 C   0  0  0  0  0  0  0  0  0  0  0  0
    8.2200    4.2906   -0.6183 N   0  0  0  0  0  0  0  0  0  0  0  0
    9.0505    3.3684   -1.1631 C   0  0  0  0  0  0  0  0  0  0  0  0
    8.6406    2.1573   -1.7227 C   0  0  0  0  0  0  0  0  0  0  0  0
    9.5910    1.2199   -2.3322 C   0  0  0  0  0  0  0  0  0  0  0  0
    9.1340    0.0819   -2.8539 N   0  0  0  0  0  0  0  0  0  0  0  0
   10.0754   -0.6923   -3.3849 C   0  0  0  0  0  0  0  0  0  0  0  0
   11.3799   -0.4321   -3.4301 N   0  0  0  0  0  0  0  0  0  0  0  0
   11.7269    0.7404   -2.9127 C   0  0  0  0  0  0  0  0  0  0  0  0
   13.0722    1.0972   -2.9559 N   0  0  0  0  0  0  0  0  0  0  0  0
   13.6240    2.3861   -2.9083 C   0  0  0  0  0  0  0  0  0  0  0  0
   14.8982    2.5738   -2.3604 C   0  0  0  0  0  0  0  0  0  0  0  0
   15.4284    3.8590   -2.2046 C   0  0  0  0  0  0  0  0  0  0  0  0
   14.6928    4.9731   -2.6050 C   0  0  0  0  0  0  0  0  0  0  0  0
   13.4301    4.7991   -3.1614 C   0  0  0  0  0  0  0  0  0  0  0  0
   12.5128    6.1641   -3.6633 Cl  0  0  0  0  0  0  0  0  0  0  0  0
   12.8988    3.5207   -3.3063 C   0  0  0  0  0  0  0  0  0  0  0  0
   10.8675    1.5797   -2.3428 N   0  0  0  0  0  0  0  0  0  0  0  0
    7.2624    1.8992   -1.6799 C   0  0  0  0  0  0  0  0  0  0  0  0
    2.5948   -1.7771    0.4221 H   0  0  0  0  0  0  0  0  0  0  0  0
    1.4053   -0.3256   -0.8553 H   0  0  0  0  0  0  0  0  0  0  0  0
    2.8728   -0.9117   -1.6737 H   0  0  0  0  0  0  0  0  0  0  0  0
    2.6183    1.7200   -0.1085 H   0  0  0  0  0  0  0  0  0  0  0  0
    2.5995    1.5867   -1.8712 H   0  0  0  0  0  0  0  0  0  0  0  0
    4.8688    0.5895   -1.8152 H   0  0  0  0  0  0  0  0  0  0  0  0
    4.9242    0.7509   -0.0438 H   0  0  0  0  0  0  0  0  0  0  0  0
    4.5156    3.1751   -0.3966 H   0  0  0  0  0  0  0  0  0  0  0  0
    6.2665    4.7584   -0.1989 H   0  0  0  0  0  0  0  0  0  0  0  0
   10.0999    3.6554   -1.1421 H   0  0  0  0  0  0  0  0  0  0  0  0
    9.7459   -1.6249   -3.8310 H   0  0  0  0  0  0  0  0  0  0  0  0
   13.6597    0.3517   -3.2966 H   0  0  0  0  0  0  0  0  0  0  0  0
   15.4731    1.7197   -2.0095 H   0  0  0  0  0  0  0  0  0  0  0  0
   16.4083    3.9915   -1.7538 H   0  0  0  0  0  0  0  0  0  0  0  0
   15.1008    5.9719   -2.4743 H   0  0  0  0  0  0  0  0  0  0  0  0
   11.9110    3.4131   -3.7465 H   0  0  0  0  0  0  0  0  0  0  0  0
    6.9027    0.9825   -2.1370 H   0  0  0  0  0  0  0  0  0  0  0  0
  1  2  1  0  0  0  0
  1 26  1  0  0  0  0
  2  3  1  0  0  0  0
  2 27  1  0  0  0  0
  2 28  1  0  0  0  0
  3  4  1  0  0  0  0
  3 29  1  0  0  0  0
  3 30  1  0  0  0  0
  4  5  1  0  0  0  0
  4 31  1  0  0  0  0
  4 32  1  0  0  0  0
  5  6  1  0  0  0  0
  5 33  1  0  0  0  0
  6  7  1  0  0  0  0
  6 25  2  0  0  0  0
  7  8  2  0  0  0  0
  7 34  1  0  0  0  0
  8  9  1  0  0  0  0
  9 10  2  0  0  0  0
  9 35  1  0  0  0  0
 10 11  1  0  0  0  0
 10 25  1  0  0  0  0
 11 12  1  0  0  0  0
 11 24  2  0  0  0  0
 12 13  2  0  0  0  0
 13 14  1  0  0  0  0
 13 36  1  0  0  0  0
 14 15  2  0  0  0  0
 15 16  1  0  0  0  0
 15 24  1  0  0  0  0
 16 17  1  0  0  0  0
 16 37  1  0  0  0  0
 17 18  1  0  0  0  0
 17 23  2  0  0  0  0
 18 19  2  0  0  0  0
 18 38  1  0  0  0  0
 19 20  1  0  0  0  0
 19 39  1  0  0  0  0
 20 21  2  0  0  0  0
 20 40  1  0  0  0  0
 21 22  1  0  0  0  0
 21 23  1  0  0  0  0
 23 41  1  0  0  0  0
 25 42  1  0  0  0  0
M  END
$$$$
