CHEMBL1934330
 OpenBabel04072215363D

 66 70  0  0  0  0  0  0  0  0999 V2000
    7.4304   -3.8604   -1.1722 C   0  0  0  0  0  0  0  0  0  0  0  0
    6.3579   -3.1877   -0.4365 N   0  0  0  0  0  0  0  0  0  0  0  0
    5.9621   -1.9577   -1.1360 C   0  0  0  0  0  0  0  0  0  0  0  0
    4.8173   -1.2416   -0.4159 C   0  0  0  0  0  0  0  0  0  0  0  0
    3.6000   -2.1556   -0.2218 C   0  0  0  0  0  0  0  0  0  0  0  0
    2.9127   -2.5067   -1.5483 C   0  0  0  0  0  0  0  0  0  0  0  0
    2.5289   -1.3205   -2.2550 O   0  0  0  0  0  0  0  0  0  0  0  0
    2.4695   -1.4808   -3.6155 C   0  0  0  0  0  0  0  0  0  0  0  0
    2.6506   -0.3374   -4.3829 C   0  0  0  0  0  0  0  0  0  0  0  0
    2.6936   -0.4404   -5.7738 C   0  0  0  0  0  0  0  0  0  0  0  0
    2.5809   -1.7046   -6.4083 C   0  0  0  0  0  0  0  0  0  0  0  0
    2.6819   -1.9520   -7.7891 C   0  0  0  0  0  0  0  0  0  0  0  0
    2.8165   -0.8611   -8.6972 N   0  0  0  0  0  0  0  0  0  0  0  0
    2.7418   -0.9246  -10.1071 C   0  0  0  0  0  0  0  0  0  0  0  0
    2.0049   -1.9134  -10.7552 C   0  0  0  0  0  0  0  0  0  0  0  0
    1.9611   -2.0039  -12.1424 C   0  0  0  0  0  0  0  0  0  0  0  0
    2.6031   -1.0674  -12.9458 C   0  0  0  0  0  0  0  0  0  0  0  0
    2.6175   -1.1614  -14.3591 N   0  0  0  0  0  0  0  0  0  0  0  0
    1.9624   -2.1282  -15.1002 C   0  0  0  0  0  0  0  0  0  0  0  0
    1.1932   -2.9705  -14.6506 O   0  0  0  0  0  0  0  0  0  0  0  0
    2.3029   -2.0869  -16.4445 N   0  0  0  0  0  0  0  0  0  0  0  0
    1.7272   -3.0438  -17.3220 C   0  0  0  0  0  0  0  0  0  0  0  0
    0.3556   -3.3225  -17.3077 C   0  0  0  0  0  0  0  0  0  0  0  0
   -0.1625   -4.3460  -18.1047 C   0  0  0  0  0  0  0  0  0  0  0  0
    0.6919   -5.0907  -18.9165 C   0  0  0  0  0  0  0  0  0  0  0  0
   -0.0042   -6.5121  -19.9479 Br  0  0  0  0  0  0  0  0  0  0  0  0
    2.0554   -4.8045  -18.9606 C   0  0  0  0  0  0  0  0  0  0  0  0
    2.5574   -3.7696  -18.1769 C   0  0  0  0  0  0  0  0  0  0  0  0
    3.8754   -3.5164  -18.1929 F   0  0  0  0  0  0  0  0  0  0  0  0
    3.2736   -0.0127  -12.3158 C   0  0  0  0  0  0  0  0  0  0  0  0
    3.3355    0.0599  -10.9096 C   0  0  0  0  0  0  0  0  0  0  0  0
    2.6069   -3.2066   -8.2789 N   0  0  0  0  0  0  0  0  0  0  0  0
    2.3761   -4.2027   -7.4249 C   0  0  0  0  0  0  0  0  0  0  0  0
    2.2354   -4.0765   -6.1087 N   0  0  0  0  0  0  0  0  0  0  0  0
    2.3522   -2.8424   -5.6201 C   0  0  0  0  0  0  0  0  0  0  0  0
    2.2617   -2.7065   -4.2494 C   0  0  0  0  0  0  0  0  0  0  0  0
    4.0584   -3.4348    0.4930 C   0  0  0  0  0  0  0  0  0  0  0  0
    5.2362   -4.1111   -0.2220 C   0  0  0  0  0  0  0  0  0  0  0  0
    8.2957   -3.1971   -1.2888 H   0  0  0  0  0  0  0  0  0  0  0  0
    7.1182   -4.1786   -2.1697 H   0  0  0  0  0  0  0  0  0  0  0  0
    7.7811   -4.7435   -0.6261 H   0  0  0  0  0  0  0  0  0  0  0  0
    5.6784   -2.1666   -2.1753 H   0  0  0  0  0  0  0  0  0  0  0  0
    6.8172   -1.2723   -1.1755 H   0  0  0  0  0  0  0  0  0  0  0  0
    4.5408   -0.3367   -0.9690 H   0  0  0  0  0  0  0  0  0  0  0  0
    5.1687   -0.9050    0.5687 H   0  0  0  0  0  0  0  0  0  0  0  0
    2.8730   -1.6248    0.4054 H   0  0  0  0  0  0  0  0  0  0  0  0
    2.0116   -3.1000   -1.3507 H   0  0  0  0  0  0  0  0  0  0  0  0
    3.5990   -3.1094   -2.1525 H   0  0  0  0  0  0  0  0  0  0  0  0
    2.7822    0.6281   -3.9012 H   0  0  0  0  0  0  0  0  0  0  0  0
    2.8395    0.4645   -6.3570 H   0  0  0  0  0  0  0  0  0  0  0  0
    3.5158   -0.2054   -8.3747 H   0  0  0  0  0  0  0  0  0  0  0  0
    1.4549   -2.6655  -10.1986 H   0  0  0  0  0  0  0  0  0  0  0  0
    1.4081   -2.8462  -12.5399 H   0  0  0  0  0  0  0  0  0  0  0  0
    3.0792   -0.4248  -14.8702 H   0  0  0  0  0  0  0  0  0  0  0  0
    3.2795   -1.8866  -16.6174 H   0  0  0  0  0  0  0  0  0  0  0  0
   -0.3171   -2.7664  -16.6570 H   0  0  0  0  0  0  0  0  0  0  0  0
   -1.2268   -4.5646  -18.0656 H   0  0  0  0  0  0  0  0  0  0  0  0
    2.7349   -5.3896  -19.5708 H   0  0  0  0  0  0  0  0  0  0  0  0
    3.7623    0.7628  -12.9002 H   0  0  0  0  0  0  0  0  0  0  0  0
    3.8713    0.8883  -10.4535 H   0  0  0  0  0  0  0  0  0  0  0  0
    2.2892   -5.2003   -7.8398 H   0  0  0  0  0  0  0  0  0  0  0  0
    2.0519   -3.6055   -3.6770 H   0  0  0  0  0  0  0  0  0  0  0  0
    3.2247   -4.1430    0.5740 H   0  0  0  0  0  0  0  0  0  0  0  0
    4.3584   -3.1845    1.5185 H   0  0  0  0  0  0  0  0  0  0  0  0
    4.8989   -4.5464   -1.1713 H   0  0  0  0  0  0  0  0  0  0  0  0
    5.5707   -4.9506    0.4003 H   0  0  0  0  0  0  0  0  0  0  0  0
  1  2  1  0  0  0  0
  1 39  1  0  0  0  0
  1 40  1  0  0  0  0
  1 41  1  0  0  0  0
  2  3  1  0  0  0  0
  2 38  1  0  0  0  0
  3  4  1  0  0  0  0
  3 42  1  0  0  0  0
  3 43  1  0  0  0  0
  4  5  1  0  0  0  0
  4 44  1  0  0  0  0
  4 45  1  0  0  0  0
  5  6  1  0  0  0  0
  5 37  1  0  0  0  0
  5 46  1  0  0  0  0
  6  7  1  0  0  0  0
  6 47  1  0  0  0  0
  6 48  1  0  0  0  0
  7  8  1  0  0  0  0
  8  9  1  0  0  0  0
  8 36  2  0  0  0  0
  9 10  2  0  0  0  0
  9 49  1  0  0  0  0
 10 11  1  0  0  0  0
 10 50  1  0  0  0  0
 11 12  1  0  0  0  0
 11 35  2  0  0  0  0
 12 13  1  0  0  0  0
 12 32  2  0  0  0  0
 13 14  1  0  0  0  0
 13 51  1  0  0  0  0
 14 15  1  0  0  0  0
 14 31  2  0  0  0  0
 15 16  2  0  0  0  0
 15 52  1  0  0  0  0
 16 17  1  0  0  0  0
 16 53  1  0  0  0  0
 17 18  1  0  0  0  0
 17 30  2  0  0  0  0
 18 19  1  0  0  0  0
 18 54  1  0  0  0  0
 19 20  2  0  0  0  0
 19 21  1  0  0  0  0
 21 22  1  0  0  0  0
 21 55  1  0  0  0  0
 22 23  1  0  0  0  0
 22 28  2  0  0  0  0
 23 24  2  0  0  0  0
 23 56  1  0  0  0  0
 24 25  1  0  0  0  0
 24 57  1  0  0  0  0
 25 26  1  0  0  0  0
 25 27  2  0  0  0  0
 27 28  1  0  0  0  0
 27 58  1  0  0  0  0
 28 29  1  0  0  0  0
 30 31  1  0  0  0  0
 30 59  1  0  0  0  0
 31 60  1  0  0  0  0
 32 33  1  0  0  0  0
 33 34  2  0  0  0  0
 33 61  1  0  0  0  0
 34 35  1  0  0  0  0
 35 36  1  0  0  0  0
 36 62  1  0  0  0  0
 37 38  1  0  0  0  0
 37 63  1  0  0  0  0
 37 64  1  0  0  0  0
 38 65  1  0  0  0  0
 38 66  1  0  0  0  0
M  END
$$$$
