CHEMBL3656067
 OpenBabel04072215373D

 83 86  0  0  1  0  0  0  0  0999 V2000
    1.5473    0.9025   -0.6590 C   0  0  0  0  0  0  0  0  0  0  0  0
    2.8583    0.3854   -0.4252 O   0  0  0  0  0  0  0  0  0  0  0  0
    3.6736    0.2494   -1.5038 C   0  0  0  0  0  0  0  0  0  0  0  0
    3.3989    0.5689   -2.6543 O   0  0  0  0  0  0  0  0  0  0  0  0
    5.0075   -0.3672   -1.0682 C   0  0  2  0  0  0  0  0  0  0  0  0
    6.0318    0.6927   -0.6239 C   0  0  0  0  0  0  0  0  0  0  0  0
    5.6165    1.5646    0.5582 C   0  0  0  0  0  0  0  0  0  0  0  0
    5.2006    0.7852    1.7832 C   0  0  0  0  0  0  0  0  0  0  0  0
    4.0894    0.8908    2.2824 O   0  0  0  0  0  0  0  0  0  0  0  0
    6.2135    0.0017    2.2365 O   0  0  0  0  0  0  0  0  0  0  0  0
    6.0082   -0.8488    3.3966 C   0  0  0  0  0  0  0  0  0  0  0  0
    4.9513   -1.9233    3.1105 C   0  0  0  0  0  0  0  0  0  0  0  0
    7.3552   -1.5449    3.6484 C   0  0  0  0  0  0  0  0  0  0  0  0
    5.6651   -0.0181    4.6400 C   0  0  0  0  0  0  0  0  0  0  0  0
    5.5354   -1.1556   -2.1853 N   0  0  0  0  0  0  0  0  0  0  0  0
    6.5403   -2.0657   -1.9736 C   0  0  0  0  0  0  0  0  0  0  0  0
    7.0091   -2.2634   -0.8555 O   0  0  0  0  0  0  0  0  0  0  0  0
    7.0562   -2.7648   -3.1424 C   0  0  0  0  0  0  0  0  0  0  0  0
    6.5742   -2.8356   -4.4377 C   0  0  0  0  0  0  0  0  0  0  0  0
    7.4073   -3.6601   -5.1632 N   0  0  0  0  0  0  0  0  0  0  0  0
    8.4408   -4.1131   -4.3736 C   0  0  0  0  0  0  0  0  0  0  0  0
    9.4812   -5.0198   -4.8458 C   0  0  0  0  0  0  0  0  0  0  0  0
   10.4783   -5.4749   -3.9902 C   0  0  0  0  0  0  0  0  0  0  0  0
   11.3659   -6.4431   -4.4465 C   0  0  0  0  0  0  0  0  0  0  0  0
   12.3360   -7.0267   -3.6499 O   0  0  0  0  0  0  0  0  0  0  0  0
   12.0532   -7.3104   -2.3325 C   0  0  0  0  0  0  0  0  0  0  0  0
   10.7753   -7.6214   -1.8679 C   0  0  0  0  0  0  0  0  0  0  0  0
   10.5426   -7.8189   -0.5060 C   0  0  0  0  0  0  0  0  0  0  0  0
   11.5856   -7.7666    0.4205 C   0  0  0  0  0  0  0  0  0  0  0  0
   11.3777   -7.8973    1.8207 N   0  0  0  0  0  0  0  0  0  0  0  0
   10.1444   -7.8252    2.4532 C   0  0  0  0  0  0  0  0  0  0  0  0
    9.0719   -7.6759    1.8779 O   0  0  0  0  0  0  0  0  0  0  0  0
   10.2510   -7.8796    3.8359 N   0  0  0  0  0  0  0  0  0  0  0  0
    9.0907   -7.7716    4.6449 C   0  0  0  0  0  0  0  0  0  0  0  0
    9.1022   -6.8734    5.7117 C   0  0  0  0  0  0  0  0  0  0  0  0
    7.9496   -6.6837    6.4766 C   0  0  0  0  0  0  0  0  0  0  0  0
    6.8000   -7.4318    6.2173 C   0  0  0  0  0  0  0  0  0  0  0  0
    6.7866   -8.3706    5.1812 C   0  0  0  0  0  0  0  0  0  0  0  0
    5.5726   -9.2166    4.9275 C   0  0  0  0  0  0  0  0  0  0  0  0
    7.9342   -8.5227    4.3872 C   0  0  0  0  0  0  0  0  0  0  0  0
   12.8797   -7.5625   -0.0700 C   0  0  0  0  0  0  0  0  0  0  0  0
   13.9170   -7.5512    0.7820 F   0  0  0  0  0  0  0  0  0  0  0  0
   13.1197   -7.3237   -1.4309 C   0  0  0  0  0  0  0  0  0  0  0  0
   11.3073   -6.8355   -5.7778 C   0  0  0  0  0  0  0  0  0  0  0  0
   10.3081   -6.2936   -6.5739 C   0  0  0  0  0  0  0  0  0  0  0  0
    9.3781   -5.4110   -6.1362 N   0  0  0  0  0  0  0  0  0  0  0  0
    8.2292   -3.5712   -3.1209 C   0  0  0  0  0  0  0  0  0  0  0  0
    0.8724    0.4295    0.0605 H   0  0  0  0  0  0  0  0  0  0  0  0
    1.1803    0.6849   -1.6658 H   0  0  0  0  0  0  0  0  0  0  0  0
    1.5476    1.9806   -0.4769 H   0  0  0  0  0  0  0  0  0  0  0  0
    4.8076   -1.0762   -0.2545 H   0  0  0  0  0  0  0  0  0  0  0  0
    6.9744    0.1969   -0.3587 H   0  0  0  0  0  0  0  0  0  0  0  0
    6.2728    1.3484   -1.4701 H   0  0  0  0  0  0  0  0  0  0  0  0
    4.7854    2.2173    0.2688 H   0  0  0  0  0  0  0  0  0  0  0  0
    6.4413    2.2295    0.8465 H   0  0  0  0  0  0  0  0  0  0  0  0
    5.2267   -2.5130    2.2281 H   0  0  0  0  0  0  0  0  0  0  0  0
    3.9689   -1.4914    2.8996 H   0  0  0  0  0  0  0  0  0  0  0  0
    4.8369   -2.6062    3.9595 H   0  0  0  0  0  0  0  0  0  0  0  0
    7.6669   -2.1295    2.7740 H   0  0  0  0  0  0  0  0  0  0  0  0
    7.3044   -2.2208    4.5114 H   0  0  0  0  0  0  0  0  0  0  0  0
    8.1471   -0.8127    3.8315 H   0  0  0  0  0  0  0  0  0  0  0  0
    4.7087    0.5023    4.5434 H   0  0  0  0  0  0  0  0  0  0  0  0
    6.4245    0.7542    4.8072 H   0  0  0  0  0  0  0  0  0  0  0  0
    5.6040   -0.6460    5.5350 H   0  0  0  0  0  0  0  0  0  0  0  0
    5.2128   -0.9569   -3.1248 H   0  0  0  0  0  0  0  0  0  0  0  0
    5.7040   -2.4013   -4.9113 H   0  0  0  0  0  0  0  0  0  0  0  0
    7.2942   -3.9256   -6.1345 H   0  0  0  0  0  0  0  0  0  0  0  0
   10.5334   -5.1138   -2.9711 H   0  0  0  0  0  0  0  0  0  0  0  0
    9.9235   -7.6878   -2.5397 H   0  0  0  0  0  0  0  0  0  0  0  0
    9.5169   -8.0147   -0.2094 H   0  0  0  0  0  0  0  0  0  0  0  0
   12.2098   -7.9541    2.3928 H   0  0  0  0  0  0  0  0  0  0  0  0
   11.0884   -7.4604    4.2103 H   0  0  0  0  0  0  0  0  0  0  0  0
    9.9766   -6.2642    5.9175 H   0  0  0  0  0  0  0  0  0  0  0  0
    7.9415   -5.9416    7.2703 H   0  0  0  0  0  0  0  0  0  0  0  0
    5.9139   -7.2747    6.8283 H   0  0  0  0  0  0  0  0  0  0  0  0
    4.7436   -8.9357    5.5865 H   0  0  0  0  0  0  0  0  0  0  0  0
    5.8048  -10.2699    5.1167 H   0  0  0  0  0  0  0  0  0  0  0  0
    5.2299   -9.1024    3.8944 H   0  0  0  0  0  0  0  0  0  0  0  0
    7.9217   -9.2362    3.5655 H   0  0  0  0  0  0  0  0  0  0  0  0
   14.1324   -7.1364   -1.7707 H   0  0  0  0  0  0  0  0  0  0  0  0
   12.0128   -7.5498   -6.1861 H   0  0  0  0  0  0  0  0  0  0  0  0
   10.2196   -6.5713   -7.6221 H   0  0  0  0  0  0  0  0  0  0  0  0
    8.8420   -3.7333   -2.2423 H   0  0  0  0  0  0  0  0  0  0  0  0
  1  2  1  0  0  0  0
  1 48  1  0  0  0  0
  1 49  1  0  0  0  0
  1 50  1  0  0  0  0
  2  3  1  0  0  0  0
  3  4  2  0  0  0  0
  5 15  1  0  0  0  0
  5  6  1  0  0  0  0
  5  3  1  0  0  0  0
  5 51  1  1  0  0  0
  6  7  1  0  0  0  0
  6 52  1  0  0  0  0
  6 53  1  0  0  0  0
  7  8  1  0  0  0  0
  7 54  1  0  0  0  0
  7 55  1  0  0  0  0
  8  9  2  0  0  0  0
  8 10  1  0  0  0  0
 10 11  1  0  0  0  0
 11 12  1  0  0  0  0
 11 13  1  0  0  0  0
 11 14  1  0  0  0  0
 12 56  1  0  0  0  0
 12 57  1  0  0  0  0
 12 58  1  0  0  0  0
 13 59  1  0  0  0  0
 13 60  1  0  0  0  0
 13 61  1  0  0  0  0
 14 62  1  0  0  0  0
 14 63  1  0  0  0  0
 14 64  1  0  0  0  0
 15 16  1  0  0  0  0
 15 65  1  0  0  0  0
 16 17  2  0  0  0  0
 16 18  1  0  0  0  0
 18 19  2  0  0  0  0
 18 47  1  0  0  0  0
 19 20  1  0  0  0  0
 19 66  1  0  0  0  0
 20 21  1  0  0  0  0
 20 67  1  0  0  0  0
 21 22  1  0  0  0  0
 21 47  2  0  0  0  0
 22 23  1  0  0  0  0
 22 46  2  0  0  0  0
 23 24  2  0  0  0  0
 23 68  1  0  0  0  0
 24 25  1  0  0  0  0
 24 44  1  0  0  0  0
 25 26  1  0  0  0  0
 26 27  1  0  0  0  0
 26 43  2  0  0  0  0
 27 28  2  0  0  0  0
 27 69  1  0  0  0  0
 28 29  1  0  0  0  0
 28 70  1  0  0  0  0
 29 30  1  0  0  0  0
 29 41  2  0  0  0  0
 30 31  1  0  0  0  0
 30 71  1  0  0  0  0
 31 32  2  0  0  0  0
 31 33  1  0  0  0  0
 33 34  1  0  0  0  0
 33 72  1  0  0  0  0
 34 35  1  0  0  0  0
 34 40  2  0  0  0  0
 35 36  2  0  0  0  0
 35 73  1  0  0  0  0
 36 37  1  0  0  0  0
 36 74  1  0  0  0  0
 37 38  2  0  0  0  0
 37 75  1  0  0  0  0
 38 39  1  0  0  0  0
 38 40  1  0  0  0  0
 39 76  1  0  0  0  0
 39 77  1  0  0  0  0
 39 78  1  0  0  0  0
 40 79  1  0  0  0  0
 41 42  1  0  0  0  0
 41 43  1  0  0  0  0
 43 80  1  0  0  0  0
 44 45  2  0  0  0  0
 44 81  1  0  0  0  0
 45 46  1  0  0  0  0
 45 82  1  0  0  0  0
 47 83  1  0  0  0  0
M  END
$$$$
