CHEMBL101253
 OpenBabel04072215353D

 40 43  0  0  0  0  0  0  0  0999 V2000
    5.6101   -4.8702   -2.9656 Cl  0  0  0  0  0  0  0  0  0  0  0  0
    5.1138   -3.4905   -2.0666 C   0  0  0  0  0  0  0  0  0  0  0  0
    6.0487   -2.7804   -1.3188 C   0  0  0  0  0  0  0  0  0  0  0  0
    5.6491   -1.6455   -0.6113 C   0  0  0  0  0  0  0  0  0  0  0  0
    4.3221   -1.1976   -0.6681 C   0  0  0  0  0  0  0  0  0  0  0  0
    3.8749   -0.0842    0.0863 N   0  0  0  0  0  0  0  0  0  0  0  0
    4.6207    1.1159    0.2419 C   0  0  0  0  0  0  0  0  0  0  0  0
    5.5524    1.4168   -0.6979 N   0  0  0  0  0  0  0  0  0  0  0  0
    6.2170    2.6061   -0.6880 N   0  0  0  0  0  0  0  0  0  0  0  0
    5.8987    3.5537    0.2215 C   0  0  0  0  0  0  0  0  0  0  0  0
    6.8002    4.7680    0.1862 C   0  0  0  0  0  0  0  0  0  0  0  0
    7.9426    4.6661    1.1747 C   0  0  0  0  0  0  0  0  0  0  0  0
    8.9143    3.6672    1.0409 C   0  0  0  0  0  0  0  0  0  0  0  0
    9.8968    3.5492    2.0102 C   0  0  0  0  0  0  0  0  0  0  0  0
    9.9880    4.3624    3.0847 N   0  0  0  0  0  0  0  0  0  0  0  0
    9.0603    5.3367    3.1846 C   0  0  0  0  0  0  0  0  0  0  0  0
    8.0367    5.5323    2.2676 C   0  0  0  0  0  0  0  0  0  0  0  0
    4.8919    3.3375    1.1883 C   0  0  0  0  0  0  0  0  0  0  0  0
    4.4735    4.3260    2.1165 C   0  0  0  0  0  0  0  0  0  0  0  0
    3.5411    4.0496    3.1107 C   0  0  0  0  0  0  0  0  0  0  0  0
    3.0079    2.7722    3.2186 C   0  0  0  0  0  0  0  0  0  0  0  0
    3.3534    1.7999    2.2791 C   0  0  0  0  0  0  0  0  0  0  0  0
    4.2741    2.0619    1.2323 C   0  0  0  0  0  0  0  0  0  0  0  0
    3.3827   -1.9568   -1.3746 C   0  0  0  0  0  0  0  0  0  0  0  0
    3.7795   -3.0902   -2.0893 C   0  0  0  0  0  0  0  0  0  0  0  0
    7.0881   -3.0943   -1.2864 H   0  0  0  0  0  0  0  0  0  0  0  0
    6.3897   -1.1019   -0.0289 H   0  0  0  0  0  0  0  0  0  0  0  0
    3.5605   -0.4253    0.9851 H   0  0  0  0  0  0  0  0  0  0  0  0
    6.2190    5.6848    0.3428 H   0  0  0  0  0  0  0  0  0  0  0  0
    7.2268    4.8751   -0.8189 H   0  0  0  0  0  0  0  0  0  0  0  0
    8.8984    2.9719    0.2039 H   0  0  0  0  0  0  0  0  0  0  0  0
   10.6523    2.7721    1.9504 H   0  0  0  0  0  0  0  0  0  0  0  0
    9.1583    5.9774    4.0566 H   0  0  0  0  0  0  0  0  0  0  0  0
    7.3274    6.3376    2.4186 H   0  0  0  0  0  0  0  0  0  0  0  0
    4.8668    5.3404    2.0707 H   0  0  0  0  0  0  0  0  0  0  0  0
    3.2312    4.8258    3.8064 H   0  0  0  0  0  0  0  0  0  0  0  0
    2.3148    2.5343    4.0212 H   0  0  0  0  0  0  0  0  0  0  0  0
    2.9153    0.8184    2.4127 H   0  0  0  0  0  0  0  0  0  0  0  0
    2.3417   -1.6433   -1.4034 H   0  0  0  0  0  0  0  0  0  0  0  0
    3.0472   -3.6467   -2.6671 H   0  0  0  0  0  0  0  0  0  0  0  0
  1  2  1  0  0  0  0
  2  3  1  0  0  0  0
  2 25  2  0  0  0  0
  3  4  2  0  0  0  0
  3 26  1  0  0  0  0
  4  5  1  0  0  0  0
  4 27  1  0  0  0  0
  5  6  1  0  0  0  0
  5 24  2  0  0  0  0
  6  7  1  0  0  0  0
  6 28  1  0  0  0  0
  7  8  1  0  0  0  0
  7 23  2  0  0  0  0
  8  9  2  0  0  0  0
  9 10  1  0  0  0  0
 10 11  1  0  0  0  0
 10 18  2  0  0  0  0
 11 12  1  0  0  0  0
 11 29  1  0  0  0  0
 11 30  1  0  0  0  0
 12 13  1  0  0  0  0
 12 17  2  0  0  0  0
 13 14  2  0  0  0  0
 13 31  1  0  0  0  0
 14 15  1  0  0  0  0
 14 32  1  0  0  0  0
 15 16  2  0  0  0  0
 16 17  1  0  0  0  0
 16 33  1  0  0  0  0
 17 34  1  0  0  0  0
 18 19  1  0  0  0  0
 18 23  1  0  0  0  0
 19 20  2  0  0  0  0
 19 35  1  0  0  0  0
 20 21  1  0  0  0  0
 20 36  1  0  0  0  0
 21 22  2  0  0  0  0
 21 37  1  0  0  0  0
 22 23  1  0  0  0  0
 22 38  1  0  0  0  0
 24 25  1  0  0  0  0
 24 39  1  0  0  0  0
 25 40  1  0  0  0  0
M  END
$$$$
