CHEMBL1080580
 OpenBabel04072215353D

 55 58  0  0  0  0  0  0  0  0999 V2000
    2.5194    0.1387   -0.0426 C   0  0  0  0  0  0  0  0  0  0  0  0
    1.0153    0.0616    0.0245 C   0  0  0  0  0  0  0  0  0  0  0  0
    0.3083    1.2618    0.1672 C   0  0  0  0  0  0  0  0  0  0  0  0
   -1.0887    1.2763    0.2043 C   0  0  0  0  0  0  0  0  0  0  0  0
   -1.8161    0.0975    0.1031 C   0  0  0  0  0  0  0  0  0  0  0  0
   -3.2376    0.0531    0.1089 N   0  0  0  0  0  0  0  0  0  0  0  0
   -4.0719    1.1055    0.4510 C   0  0  0  0  0  0  0  0  0  0  0  0
   -3.7155    2.2086    0.8607 O   0  0  0  0  0  0  0  0  0  0  0  0
   -5.5403    0.8629    0.3813 C   0  0  0  0  0  0  0  0  0  0  0  0
   -6.3414    1.5284    1.3184 C   0  0  0  0  0  0  0  0  0  0  0  0
   -7.7305    1.3850    1.3036 C   0  0  0  0  0  0  0  0  0  0  0  0
   -8.3581    0.6024    0.3276 C   0  0  0  0  0  0  0  0  0  0  0  0
   -9.8231    0.4352    0.2928 C   0  0  0  0  0  0  0  0  0  0  0  0
  -10.6897    1.3680    0.7231 C   0  0  0  0  0  0  0  0  0  0  0  0
  -12.1549    1.1434    0.6680 C   0  0  0  0  0  0  0  0  0  0  0  0
  -12.6727    0.1255    0.2228 O   0  0  0  0  0  0  0  0  0  0  0  0
  -12.8795    2.1958    1.1634 N   0  0  0  0  0  0  0  0  0  0  0  0
  -14.2847    2.0826    1.1241 O   0  0  0  0  0  0  0  0  0  0  0  0
   -7.5519   -0.0616   -0.6126 C   0  0  0  0  0  0  0  0  0  0  0  0
   -6.1503    0.0685   -0.5927 C   0  0  0  0  0  0  0  0  0  0  0  0
   -1.1078   -1.1076   -0.0228 C   0  0  0  0  0  0  0  0  0  0  0  0
    0.3074   -1.1586   -0.0382 C   0  0  0  0  0  0  0  0  0  0  0  0
    1.0192   -2.3725   -0.1966 N   0  0  0  0  0  0  0  0  0  0  0  0
    0.5331   -3.5713   -0.5954 C   0  0  0  0  0  0  0  0  0  0  0  0
   -0.6365   -3.7935   -1.1515 N   0  0  0  0  0  0  0  0  0  0  0  0
   -0.8455   -5.1394   -1.3769 C   0  0  0  0  0  0  0  0  0  0  0  0
   -2.1074   -5.5998   -1.9274 C   0  0  0  0  0  0  0  0  0  0  0  0
   -2.8285   -4.7911   -2.8118 C   0  0  0  0  0  0  0  0  0  0  0  0
   -4.0497   -5.2311   -3.3183 C   0  0  0  0  0  0  0  0  0  0  0  0
   -4.5186   -6.4701   -2.9144 C   0  0  0  0  0  0  0  0  0  0  0  0
   -3.8610   -7.2759   -2.0530 N   0  0  0  0  0  0  0  0  0  0  0  0
   -2.6752   -6.8201   -1.5779 C   0  0  0  0  0  0  0  0  0  0  0  0
    0.2206   -5.9487   -1.0476 C   0  0  0  0  0  0  0  0  0  0  0  0
    1.5015   -4.9940   -0.4202 S   0  0  0  0  0  0  0  0  0  0  0  0
    2.8546    1.1688   -0.2104 H   0  0  0  0  0  0  0  0  0  0  0  0
    2.9045   -0.4559   -0.8765 H   0  0  0  0  0  0  0  0  0  0  0  0
    2.9618   -0.2096    0.8958 H   0  0  0  0  0  0  0  0  0  0  0  0
    0.8329    2.2122    0.2361 H   0  0  0  0  0  0  0  0  0  0  0  0
   -1.5722    2.2436    0.2912 H   0  0  0  0  0  0  0  0  0  0  0  0
   -3.6563   -0.8530   -0.0533 H   0  0  0  0  0  0  0  0  0  0  0  0
   -5.8821    2.1695    2.0694 H   0  0  0  0  0  0  0  0  0  0  0  0
   -8.3026    1.8983    2.0717 H   0  0  0  0  0  0  0  0  0  0  0  0
  -10.1926   -0.5030   -0.1189 H   0  0  0  0  0  0  0  0  0  0  0  0
  -10.3571    2.3201    1.1158 H   0  0  0  0  0  0  0  0  0  0  0  0
  -12.5004    3.0638    1.5210 H   0  0  0  0  0  0  0  0  0  0  0  0
  -14.4143    1.2009    0.7105 H   0  0  0  0  0  0  0  0  0  0  0  0
   -8.0110   -0.6722   -1.3887 H   0  0  0  0  0  0  0  0  0  0  0  0
   -5.5632   -0.4206   -1.3654 H   0  0  0  0  0  0  0  0  0  0  0  0
   -1.6753   -2.0329   -0.0707 H   0  0  0  0  0  0  0  0  0  0  0  0
    1.9584   -2.3551    0.1758 H   0  0  0  0  0  0  0  0  0  0  0  0
   -2.4392   -3.8194   -3.1094 H   0  0  0  0  0  0  0  0  0  0  0  0
   -4.6192   -4.6216   -4.0109 H   0  0  0  0  0  0  0  0  0  0  0  0
   -5.4647   -6.8579   -3.2816 H   0  0  0  0  0  0  0  0  0  0  0  0
   -2.1977   -7.4887   -0.8672 H   0  0  0  0  0  0  0  0  0  0  0  0
    0.3232   -7.0208   -1.1466 H   0  0  0  0  0  0  0  0  0  0  0  0
  1  2  1  0  0  0  0
  1 35  1  0  0  0  0
  1 36  1  0  0  0  0
  1 37  1  0  0  0  0
  2  3  1  0  0  0  0
  2 22  2  0  0  0  0
  3  4  2  0  0  0  0
  3 38  1  0  0  0  0
  4  5  1  0  0  0  0
  4 39  1  0  0  0  0
  5  6  1  0  0  0  0
  5 21  2  0  0  0  0
  6  7  1  0  0  0  0
  6 40  1  0  0  0  0
  7  8  2  0  0  0  0
  7  9  1  0  0  0  0
  9 10  1  0  0  0  0
  9 20  2  0  0  0  0
 10 11  2  0  0  0  0
 10 41  1  0  0  0  0
 11 12  1  0  0  0  0
 11 42  1  0  0  0  0
 12 13  1  0  0  0  0
 12 19  2  0  0  0  0
 13 14  2  0  0  0  0
 13 43  1  0  0  0  0
 14 15  1  0  0  0  0
 14 44  1  0  0  0  0
 15 16  2  0  0  0  0
 15 17  1  0  0  0  0
 17 18  1  0  0  0  0
 17 45  1  0  0  0  0
 18 46  1  0  0  0  0
 19 20  1  0  0  0  0
 19 47  1  0  0  0  0
 20 48  1  0  0  0  0
 21 22  1  0  0  0  0
 21 49  1  0  0  0  0
 22 23  1  0  0  0  0
 23 24  1  0  0  0  0
 23 50  1  0  0  0  0
 24 25  2  0  0  0  0
 24 34  1  0  0  0  0
 25 26  1  0  0  0  0
 26 27  1  0  0  0  0
 26 33  2  0  0  0  0
 27 28  1  0  0  0  0
 27 32  2  0  0  0  0
 28 29  2  0  0  0  0
 28 51  1  0  0  0  0
 29 30  1  0  0  0  0
 29 52  1  0  0  0  0
 30 31  2  0  0  0  0
 30 53  1  0  0  0  0
 31 32  1  0  0  0  0
 32 54  1  0  0  0  0
 33 34  1  0  0  0  0
 33 55  1  0  0  0  0
M  END
$$$$
