CHEMBL265191
 OpenBabel04072215363D

 49 52  0  0  1  0  0  0  0  0999 V2000
    3.4010    0.6114    1.0449 C   0  0  0  0  0  0  0  0  0  0  0  0
    2.4227    0.1467   -0.0340 C   0  0  0  0  0  0  0  0  0  0  0  0
    1.9213    1.2961   -0.9213 C   0  0  0  0  0  0  0  0  0  0  0  0
    2.9442   -1.0545   -0.7956 C   0  0  0  0  0  0  0  0  0  0  0  0
    2.6210   -2.4149   -0.4598 C   0  0  0  0  0  0  0  0  0  0  0  0
    1.8950   -2.8297    0.6116 O   0  0  0  0  0  0  0  0  0  0  0  0
    2.0778   -4.2284    0.9171 C   0  0  0  0  0  0  0  0  0  0  0  0
    1.5781   -4.5519    2.3299 C   0  0  1  0  0  0  0  0  0  0  0  0
    2.2028   -3.6531    3.3859 C   0  0  0  0  0  0  0  0  0  0  0  0
    0.1568   -4.4277    2.3986 O   0  0  0  0  0  0  0  0  0  0  0  0
    3.1418   -3.2248   -1.4320 C   0  0  0  0  0  0  0  0  0  0  0  0
    3.8383   -2.4474   -2.3016 N   0  0  0  0  0  0  0  0  0  0  0  0
    4.4432   -2.9225   -3.3982 N   0  0  0  0  0  0  0  0  0  0  0  0
    5.0442   -2.0152   -4.0892 C   0  0  0  0  0  0  0  0  0  0  0  0
    5.1412   -0.6894   -3.7800 N   0  0  0  0  0  0  0  0  0  0  0  0
    4.5805   -0.2159   -2.7019 C   0  0  0  0  0  0  0  0  0  0  0  0
    4.8124    1.1102   -2.3894 N   0  0  0  0  0  0  0  0  0  0  0  0
    4.8289    2.1601   -3.3313 C   0  0  0  0  0  0  0  0  0  0  0  0
    4.2349    2.0668   -4.5995 C   0  0  0  0  0  0  0  0  0  0  0  0
    4.2635    2.9958   -5.5904 N   0  0  0  0  0  0  0  0  0  0  0  0
    5.0000    4.0696   -5.2614 C   0  0  0  0  0  0  0  0  0  0  0  0
    5.2518    5.1194   -6.1004 N   0  0  0  0  0  0  0  0  0  0  0  0
    6.0706    6.0244   -5.4750 C   0  0  0  0  0  0  0  0  0  0  0  0
    6.3167    5.5596   -4.1994 C   0  0  0  0  0  0  0  0  0  0  0  0
    5.6493    4.3124   -4.0576 C   0  0  0  0  0  0  0  0  0  0  0  0
    5.5409    3.3332   -3.0504 C   0  0  0  0  0  0  0  0  0  0  0  0
    3.8105   -1.1378   -1.8947 C   0  0  0  0  0  0  0  0  0  0  0  0
    3.2444    1.6585    1.3209 H   0  0  0  0  0  0  0  0  0  0  0  0
    4.4470    0.4840    0.7478 H   0  0  0  0  0  0  0  0  0  0  0  0
    3.2503    0.0153    1.9534 H   0  0  0  0  0  0  0  0  0  0  0  0
    1.5177   -0.1763    0.5035 H   0  0  0  0  0  0  0  0  0  0  0  0
    2.6129    1.5855   -1.7045 H   0  0  0  0  0  0  0  0  0  0  0  0
    1.7163    2.1960   -0.3319 H   0  0  0  0  0  0  0  0  0  0  0  0
    0.9937    1.0117   -1.4287 H   0  0  0  0  0  0  0  0  0  0  0  0
    3.1427   -4.4932    0.8714 H   0  0  0  0  0  0  0  0  0  0  0  0
    1.5112   -4.8226    0.1900 H   0  0  0  0  0  0  0  0  0  0  0  0
    1.8174   -5.5971    2.5575 H   0  0  0  0  0  0  0  0  0  0  0  0
    1.9322   -2.6043    3.2273 H   0  0  0  0  0  0  0  0  0  0  0  0
    3.2934   -3.7397    3.3814 H   0  0  0  0  0  0  0  0  0  0  0  0
    1.8350   -3.9235    4.3815 H   0  0  0  0  0  0  0  0  0  0  0  0
   -0.0657   -3.5498    2.0360 H   0  0  0  0  0  0  0  0  0  0  0  0
    3.0969   -4.2940   -1.5988 H   0  0  0  0  0  0  0  0  0  0  0  0
    5.5557   -2.3270   -5.0208 H   0  0  0  0  0  0  0  0  0  0  0  0
    4.7640    1.3894   -1.4245 H   0  0  0  0  0  0  0  0  0  0  0  0
    3.6566    1.1850   -4.8689 H   0  0  0  0  0  0  0  0  0  0  0  0
    4.9023    5.1741   -7.0468 H   0  0  0  0  0  0  0  0  0  0  0  0
    6.4120    6.9119   -5.9936 H   0  0  0  0  0  0  0  0  0  0  0  0
    6.9361    6.0504   -3.4611 H   0  0  0  0  0  0  0  0  0  0  0  0
    6.0498    3.4728   -2.1026 H   0  0  0  0  0  0  0  0  0  0  0  0
  1  2  1  0  0  0  0
  1 28  1  0  0  0  0
  1 29  1  0  0  0  0
  1 30  1  0  0  0  0
  2  3  1  0  0  0  0
  2  4  1  0  0  0  0
  2 31  1  0  0  0  0
  3 32  1  0  0  0  0
  3 33  1  0  0  0  0
  3 34  1  0  0  0  0
  4  5  1  0  0  0  0
  4 27  2  0  0  0  0
  5  6  1  0  0  0  0
  5 11  2  0  0  0  0
  6  7  1  0  0  0  0
  7  8  1  0  0  0  0
  7 35  1  0  0  0  0
  7 36  1  0  0  0  0
  8  9  1  0  0  0  0
  8 10  1  0  0  0  0
  8 37  1  1  0  0  0
  9 38  1  0  0  0  0
  9 39  1  0  0  0  0
  9 40  1  0  0  0  0
 10 41  1  0  0  0  0
 11 12  1  0  0  0  0
 11 42  1  0  0  0  0
 12 13  1  0  0  0  0
 12 27  1  0  0  0  0
 13 14  2  0  0  0  0
 14 15  1  0  0  0  0
 14 43  1  0  0  0  0
 15 16  2  0  0  0  0
 16 17  1  0  0  0  0
 16 27  1  0  0  0  0
 17 18  1  0  0  0  0
 17 44  1  0  0  0  0
 18 19  1  0  0  0  0
 18 26  2  0  0  0  0
 19 20  2  0  0  0  0
 19 45  1  0  0  0  0
 20 21  1  0  0  0  0
 21 22  1  0  0  0  0
 21 25  2  0  0  0  0
 22 23  1  0  0  0  0
 22 46  1  0  0  0  0
 23 24  2  0  0  0  0
 23 47  1  0  0  0  0
 24 25  1  0  0  0  0
 24 48  1  0  0  0  0
 25 26  1  0  0  0  0
 26 49  1  0  0  0  0
M  END
$$$$
