CHEMBL2023116
 OpenBabel04072215363D

 59 62  0  0  0  0  0  0  0  0999 V2000
    7.6215    5.1664   -4.3308 C   0  0  0  0  0  0  0  0  0  0  0  0
    6.8814    6.4341   -4.7131 C   0  0  0  0  0  0  0  0  0  0  0  0
    5.4481    6.3075   -4.5329 N   0  0  0  0  0  0  0  0  0  0  0  0
    4.7662    6.5373   -3.3750 C   0  0  0  0  0  0  0  0  0  0  0  0
    3.4389    6.3126   -3.6471 C   0  0  0  0  0  0  0  0  0  0  0  0
    2.3617    6.4128   -2.7768 N   0  0  0  0  0  0  0  0  0  0  0  0
    2.4846    6.5801   -1.4112 C   0  0  0  0  0  0  0  0  0  0  0  0
    3.5517    6.5756   -0.7942 O   0  0  0  0  0  0  0  0  0  0  0  0
    1.1976    6.7494   -0.6153 C   0  0  0  0  0  0  0  0  0  0  0  0
   -0.0949    6.8504   -1.3841 C   0  0  0  0  0  0  0  0  0  0  0  0
   -0.8182    5.7080   -1.7339 C   0  0  0  0  0  0  0  0  0  0  0  0
   -1.9881    5.8146   -2.4977 C   0  0  0  0  0  0  0  0  0  0  0  0
   -2.4889    7.0641   -2.8879 C   0  0  0  0  0  0  0  0  0  0  0  0
   -3.5511    7.2374   -3.7445 O   0  0  0  0  0  0  0  0  0  0  0  0
   -4.6347    6.3627   -3.8246 C   0  0  0  0  0  0  0  0  0  0  0  0
   -4.7798    5.3687   -2.9308 N   0  0  0  0  0  0  0  0  0  0  0  0
   -5.8413    4.5789   -3.1194 C   0  0  0  0  0  0  0  0  0  0  0  0
   -6.7682    4.7119   -4.0781 N   0  0  0  0  0  0  0  0  0  0  0  0
   -6.6183    5.7283   -4.9354 C   0  0  0  0  0  0  0  0  0  0  0  0
   -7.5549    5.8967   -5.9508 C   0  0  0  0  0  0  0  0  0  0  0  0
   -7.4587    6.9167   -6.9121 C   0  0  0  0  0  0  0  0  0  0  0  0
   -8.3396    7.0323   -7.9529 O   0  0  0  0  0  0  0  0  0  0  0  0
   -9.6378    6.4744   -7.7938 C   0  0  0  0  0  0  0  0  0  0  0  0
   -6.3849    7.8129   -6.8383 C   0  0  0  0  0  0  0  0  0  0  0  0
   -6.0944    8.8744   -7.6528 O   0  0  0  0  0  0  0  0  0  0  0  0
   -6.8665    9.0697   -8.8288 C   0  0  0  0  0  0  0  0  0  0  0  0
   -5.4485    7.6627   -5.8075 C   0  0  0  0  0  0  0  0  0  0  0  0
   -5.5460    6.6159   -4.8616 C   0  0  0  0  0  0  0  0  0  0  0  0
   -1.7686    8.2154   -2.5207 C   0  0  0  0  0  0  0  0  0  0  0  0
   -2.0518    9.5119   -2.8672 O   0  0  0  0  0  0  0  0  0  0  0  0
   -3.4250    9.8740   -2.9266 C   0  0  0  0  0  0  0  0  0  0  0  0
   -0.5758    8.0979   -1.7928 C   0  0  0  0  0  0  0  0  0  0  0  0
    3.4268    5.9713   -5.0192 C   0  0  0  0  0  0  0  0  0  0  0  0
    4.6508    5.9585   -5.5609 N   0  0  0  0  0  0  0  0  0  0  0  0
    8.7028    5.3178   -4.4100 H   0  0  0  0  0  0  0  0  0  0  0  0
    7.3426    4.3354   -4.9902 H   0  0  0  0  0  0  0  0  0  0  0  0
    7.3941    4.8672   -3.3039 H   0  0  0  0  0  0  0  0  0  0  0  0
    7.0724    6.7025   -5.7576 H   0  0  0  0  0  0  0  0  0  0  0  0
    7.2141    7.2690   -4.0856 H   0  0  0  0  0  0  0  0  0  0  0  0
    5.2816    6.8415   -2.4743 H   0  0  0  0  0  0  0  0  0  0  0  0
    1.4427    6.3207   -3.1924 H   0  0  0  0  0  0  0  0  0  0  0  0
    1.3192    7.6575   -0.0091 H   0  0  0  0  0  0  0  0  0  0  0  0
    1.1348    5.9123    0.0913 H   0  0  0  0  0  0  0  0  0  0  0  0
   -0.4702    4.7203   -1.4346 H   0  0  0  0  0  0  0  0  0  0  0  0
   -2.4788    4.8923   -2.7934 H   0  0  0  0  0  0  0  0  0  0  0  0
   -5.9609    3.7405   -2.4411 H   0  0  0  0  0  0  0  0  0  0  0  0
   -8.3627    5.1718   -5.9864 H   0  0  0  0  0  0  0  0  0  0  0  0
  -10.2184    6.7338   -8.6848 H   0  0  0  0  0  0  0  0  0  0  0  0
  -10.1431    6.9063   -6.9243 H   0  0  0  0  0  0  0  0  0  0  0  0
   -9.6060    5.3824   -7.7368 H   0  0  0  0  0  0  0  0  0  0  0  0
   -6.4272    9.9087   -9.3775 H   0  0  0  0  0  0  0  0  0  0  0  0
   -7.8959    9.3493   -8.5837 H   0  0  0  0  0  0  0  0  0  0  0  0
   -6.8210    8.1963   -9.4872 H   0  0  0  0  0  0  0  0  0  0  0  0
   -4.6191    8.3660   -5.7560 H   0  0  0  0  0  0  0  0  0  0  0  0
   -3.4928   10.9475   -2.7251 H   0  0  0  0  0  0  0  0  0  0  0  0
   -4.0328    9.3563   -2.1773 H   0  0  0  0  0  0  0  0  0  0  0  0
   -3.8104    9.7102   -3.9357 H   0  0  0  0  0  0  0  0  0  0  0  0
   -0.0235    9.0041   -1.5459 H   0  0  0  0  0  0  0  0  0  0  0  0
    2.5824    5.7164   -5.6456 H   0  0  0  0  0  0  0  0  0  0  0  0
  1  2  1  0  0  0  0
  1 35  1  0  0  0  0
  1 36  1  0  0  0  0
  1 37  1  0  0  0  0
  2  3  1  0  0  0  0
  2 38  1  0  0  0  0
  2 39  1  0  0  0  0
  3  4  1  0  0  0  0
  3 34  1  0  0  0  0
  4  5  2  0  0  0  0
  4 40  1  0  0  0  0
  5  6  1  0  0  0  0
  5 33  1  0  0  0  0
  6  7  1  0  0  0  0
  6 41  1  0  0  0  0
  7  8  2  0  0  0  0
  7  9  1  0  0  0  0
  9 10  1  0  0  0  0
  9 42  1  0  0  0  0
  9 43  1  0  0  0  0
 10 11  1  0  0  0  0
 10 32  2  0  0  0  0
 11 12  2  0  0  0  0
 11 44  1  0  0  0  0
 12 13  1  0  0  0  0
 12 45  1  0  0  0  0
 13 14  1  0  0  0  0
 13 29  2  0  0  0  0
 14 15  1  0  0  0  0
 15 16  1  0  0  0  0
 15 28  2  0  0  0  0
 16 17  2  0  0  0  0
 17 18  1  0  0  0  0
 17 46  1  0  0  0  0
 18 19  2  0  0  0  0
 19 20  1  0  0  0  0
 19 28  1  0  0  0  0
 20 21  2  0  0  0  0
 20 47  1  0  0  0  0
 21 22  1  0  0  0  0
 21 24  1  0  0  0  0
 22 23  1  0  0  0  0
 23 48  1  0  0  0  0
 23 49  1  0  0  0  0
 23 50  1  0  0  0  0
 24 25  1  0  0  0  0
 24 27  2  0  0  0  0
 25 26  1  0  0  0  0
 26 51  1  0  0  0  0
 26 52  1  0  0  0  0
 26 53  1  0  0  0  0
 27 28  1  0  0  0  0
 27 54  1  0  0  0  0
 29 30  1  0  0  0  0
 29 32  1  0  0  0  0
 30 31  1  0  0  0  0
 31 55  1  0  0  0  0
 31 56  1  0  0  0  0
 31 57  1  0  0  0  0
 32 58  1  0  0  0  0
 33 34  2  0  0  0  0
 33 59  1  0  0  0  0
M  END
$$$$
