CHEMBL516639
 OpenBabel04072215383D

 57 61  0  0  0  0  0  0  0  0999 V2000
   10.6370   -0.8412   -2.2012 C   0  0  0  0  0  0  0  0  0  0  0  0
    9.7077   -1.5143   -3.0579 O   0  0  0  0  0  0  0  0  0  0  0  0
    8.8270   -0.7108   -3.7434 C   0  0  0  0  0  0  0  0  0  0  0  0
    9.1826    0.5922   -4.1182 C   0  0  0  0  0  0  0  0  0  0  0  0
    8.2883    1.4747   -4.7082 C   0  0  0  0  0  0  0  0  0  0  0  0
    8.7188    2.7214   -4.9429 N   0  0  0  0  0  0  0  0  0  0  0  0
    7.8603    3.5942   -5.5004 C   0  0  0  0  0  0  0  0  0  0  0  0
    6.5582    3.2848   -5.8272 C   0  0  0  0  0  0  0  0  0  0  0  0
    6.0997    2.0006   -5.5371 C   0  0  0  0  0  0  0  0  0  0  0  0
    4.7864    1.6397   -5.7968 O   0  0  0  0  0  0  0  0  0  0  0  0
    3.7754    2.5459   -5.5123 C   0  0  0  0  0  0  0  0  0  0  0  0
    2.6755    2.5460   -6.3734 C   0  0  0  0  0  0  0  0  0  0  0  0
    1.5801    3.4043   -6.1577 C   0  0  0  0  0  0  0  0  0  0  0  0
    1.5861    4.2686   -5.0412 C   0  0  0  0  0  0  0  0  0  0  0  0
    0.7130    5.2656   -4.4851 C   0  0  0  0  0  0  0  0  0  0  0  0
   -0.5012    5.5855   -5.0137 N   0  0  0  0  0  0  0  0  0  0  0  0
   -1.2740    6.7641   -4.8510 C   0  0  0  0  0  0  0  0  0  0  0  0
   -0.7661    7.9175   -4.2383 C   0  0  0  0  0  0  0  0  0  0  0  0
   -1.5436    9.0659   -4.0679 C   0  0  0  0  0  0  0  0  0  0  0  0
   -2.8736    9.0879   -4.5016 C   0  0  0  0  0  0  0  0  0  0  0  0
   -3.7198   10.3245   -4.3275 C   0  0  0  0  0  0  0  0  0  0  0  0
   -3.0762   11.3435   -3.6902 F   0  0  0  0  0  0  0  0  0  0  0  0
   -4.1398   10.8390   -5.5168 F   0  0  0  0  0  0  0  0  0  0  0  0
   -4.8488   10.0893   -3.6029 F   0  0  0  0  0  0  0  0  0  0  0  0
   -3.3979    7.9364   -5.1069 C   0  0  0  0  0  0  0  0  0  0  0  0
   -2.6097    6.7875   -5.2727 C   0  0  0  0  0  0  0  0  0  0  0  0
    1.2478    5.7954   -3.3809 N   0  0  0  0  0  0  0  0  0  0  0  0
    2.4036    5.1454   -3.2090 N   0  0  0  0  0  0  0  0  0  0  0  0
    3.1804    5.4044   -2.0207 C   0  0  0  0  0  0  0  0  0  0  0  0
    2.6904    4.2349   -4.1904 C   0  0  0  0  0  0  0  0  0  0  0  0
    3.7909    3.3824   -4.3881 C   0  0  0  0  0  0  0  0  0  0  0  0
    6.9899    1.0324   -5.0018 C   0  0  0  0  0  0  0  0  0  0  0  0
    6.6625   -0.3172   -4.7337 C   0  0  0  0  0  0  0  0  0  0  0  0
    7.5637   -1.1925   -4.0983 C   0  0  0  0  0  0  0  0  0  0  0  0
    7.0193   -2.4315   -3.8986 O   0  0  0  0  0  0  0  0  0  0  0  0
    7.7024   -3.3952   -3.1118 C   0  0  0  0  0  0  0  0  0  0  0  0
   10.7823   -1.4538   -1.3064 H   0  0  0  0  0  0  0  0  0  0  0  0
   10.2900    0.1402   -1.8555 H   0  0  0  0  0  0  0  0  0  0  0  0
   11.6006   -0.7432   -2.7112 H   0  0  0  0  0  0  0  0  0  0  0  0
   10.1878    0.9661   -3.9366 H   0  0  0  0  0  0  0  0  0  0  0  0
    8.2552    4.5947   -5.6597 H   0  0  0  0  0  0  0  0  0  0  0  0
    5.9192    4.0336   -6.2767 H   0  0  0  0  0  0  0  0  0  0  0  0
    2.6636    1.8745   -7.2293 H   0  0  0  0  0  0  0  0  0  0  0  0
    0.7437    3.3989   -6.8504 H   0  0  0  0  0  0  0  0  0  0  0  0
   -0.9259    4.9243   -5.6510 H   0  0  0  0  0  0  0  0  0  0  0  0
    0.2615    7.9513   -3.8884 H   0  0  0  0  0  0  0  0  0  0  0  0
   -1.1012    9.9361   -3.5891 H   0  0  0  0  0  0  0  0  0  0  0  0
   -4.4314    7.9271   -5.4505 H   0  0  0  0  0  0  0  0  0  0  0  0
   -3.0564    5.9099   -5.7300 H   0  0  0  0  0  0  0  0  0  0  0  0
    2.7000    6.1923   -1.4340 H   0  0  0  0  0  0  0  0  0  0  0  0
    4.1823    5.7211   -2.3184 H   0  0  0  0  0  0  0  0  0  0  0  0
    3.2200    4.4817   -1.4366 H   0  0  0  0  0  0  0  0  0  0  0  0
    4.6208    3.3808   -3.6897 H   0  0  0  0  0  0  0  0  0  0  0  0
    5.6794   -0.6972   -5.0079 H   0  0  0  0  0  0  0  0  0  0  0  0
    6.9675   -4.1588   -2.8328 H   0  0  0  0  0  0  0  0  0  0  0  0
    8.0871   -2.9844   -2.1750 H   0  0  0  0  0  0  0  0  0  0  0  0
    8.4851   -3.8900   -3.6951 H   0  0  0  0  0  0  0  0  0  0  0  0
  1  2  1  0  0  0  0
  1 37  1  0  0  0  0
  1 38  1  0  0  0  0
  1 39  1  0  0  0  0
  2  3  1  0  0  0  0
  3  4  1  0  0  0  0
  3 34  2  0  0  0  0
  4  5  2  0  0  0  0
  4 40  1  0  0  0  0
  5  6  1  0  0  0  0
  5 32  1  0  0  0  0
  6  7  2  0  0  0  0
  7  8  1  0  0  0  0
  7 41  1  0  0  0  0
  8  9  2  0  0  0  0
  8 42  1  0  0  0  0
  9 10  1  0  0  0  0
  9 32  1  0  0  0  0
 10 11  1  0  0  0  0
 11 12  1  0  0  0  0
 11 31  2  0  0  0  0
 12 13  2  0  0  0  0
 12 43  1  0  0  0  0
 13 14  1  0  0  0  0
 13 44  1  0  0  0  0
 14 15  1  0  0  0  0
 14 30  2  0  0  0  0
 15 16  1  0  0  0  0
 15 27  2  0  0  0  0
 16 17  1  0  0  0  0
 16 45  1  0  0  0  0
 17 18  1  0  0  0  0
 17 26  2  0  0  0  0
 18 19  2  0  0  0  0
 18 46  1  0  0  0  0
 19 20  1  0  0  0  0
 19 47  1  0  0  0  0
 20 21  1  0  0  0  0
 20 25  2  0  0  0  0
 21 22  1  0  0  0  0
 21 23  1  0  0  0  0
 21 24  1  0  0  0  0
 25 26  1  0  0  0  0
 25 48  1  0  0  0  0
 26 49  1  0  0  0  0
 27 28  1  0  0  0  0
 28 29  1  0  0  0  0
 28 30  1  0  0  0  0
 29 50  1  0  0  0  0
 29 51  1  0  0  0  0
 29 52  1  0  0  0  0
 30 31  1  0  0  0  0
 31 53  1  0  0  0  0
 32 33  2  0  0  0  0
 33 34  1  0  0  0  0
 33 54  1  0  0  0  0
 34 35  1  0  0  0  0
 35 36  1  0  0  0  0
 36 55  1  0  0  0  0
 36 56  1  0  0  0  0
 36 57  1  0  0  0  0
M  END
$$$$
