CHEMBL487254
 OpenBabel04072215383D

 63 69  0  0  1  0  0  0  0  0999 V2000
    5.3220    0.6649    1.9417 N   0  0  0  0  0  0  0  0  0  0  0  0
    4.6111    0.8056    0.8763 C   0  0  0  0  0  0  0  0  0  0  0  0
    3.6602    1.7325    0.6414 N   0  0  0  0  0  0  0  0  0  0  0  0
    3.6403    3.0602    1.1118 C   0  0  0  0  0  0  0  0  0  0  0  0
    4.8078    3.7453    1.4950 C   0  0  0  0  0  0  0  0  0  0  0  0
    4.7683    5.0633    1.9911 C   0  0  0  0  0  0  0  0  0  0  0  0
    3.5439    5.7025    2.0925 C   0  0  0  0  0  0  0  0  0  0  0  0
    2.3796    5.0554    1.6936 C   0  0  0  0  0  0  0  0  0  0  0  0
    2.4253    3.7441    1.1784 C   0  0  0  0  0  0  0  0  0  0  0  0
    4.7411   -0.3171   -0.4454 S   0  0  0  0  0  0  0  0  0  0  0  0
    5.9731   -1.5050    0.1394 C   0  0  0  0  0  0  0  0  0  0  0  0
    6.1456   -2.6310   -0.8856 C   0  0  0  0  0  0  0  0  0  0  0  0
    6.5635   -2.1637   -2.2923 C   0  0  0  0  0  0  0  0  0  0  0  0
    6.7083   -3.2888   -3.1873 N   0  0  0  0  0  0  0  0  0  0  0  0
    5.7958   -3.8098   -4.0759 C   0  0  0  0  0  0  0  0  0  0  0  0
    4.7604   -3.2821   -4.4696 O   0  0  0  0  0  0  0  0  0  0  0  0
    6.3698   -5.0851   -4.6220 C   0  0  0  0  0  0  0  0  0  0  0  0
    7.6780   -5.0636   -4.1997 C   0  0  0  0  0  0  0  0  0  0  0  0
    7.8432   -3.9932   -3.2164 C   0  0  0  0  0  0  0  0  0  0  0  0
    8.7997   -3.8651   -2.4799 O   0  0  0  0  0  0  0  0  0  0  0  0
    8.7367   -5.9282   -4.5320 N   0  0  0  0  0  0  0  0  0  0  0  0
   10.0977   -5.8051   -4.2950 C   0  0  0  0  0  0  0  0  0  0  0  0
   10.7654   -6.5533   -5.2453 C   0  0  0  0  0  0  0  0  0  0  0  0
    9.7624   -7.0530   -6.1001 C   0  0  0  0  0  0  0  0  0  0  0  0
    9.6873   -7.4195   -7.4435 C   0  0  0  0  0  0  0  0  0  0  0  0
    8.4133   -7.6987   -7.9313 C   0  0  0  0  0  0  0  0  0  0  0  0
    7.3244   -7.8882   -7.0543 C   0  0  0  0  0  0  0  0  0  0  0  0
    7.3858   -7.7011   -5.6467 C   0  0  0  0  0  0  0  0  0  0  0  0
    8.5975   -7.0486   -5.3500 C   0  0  0  0  0  0  0  0  0  0  0  0
    6.1714   -7.4371   -4.7401 C   0  0  3  0  0  0  0  0  0  0  0  0
    5.1737   -7.4550   -3.4621 C   0  0  0  0  0  0  0  0  0  0  0  0
    3.8506   -7.2238   -4.1804 C   0  0  0  0  0  0  0  0  0  0  0  0
    2.8121   -8.1568   -3.9595 C   0  0  0  0  0  0  0  0  0  0  0  0
    2.5410   -9.0635   -4.9706 C   0  0  0  0  0  0  0  0  0  0  0  0
    3.1783   -8.8914   -6.1996 C   0  0  0  0  0  0  0  0  0  0  0  0
    3.9473   -7.7057   -6.4643 C   0  0  0  0  0  0  0  0  0  0  0  0
    4.2731   -6.7665   -5.4387 C   0  0  0  0  0  0  0  0  0  0  0  0
    5.7250   -6.1618   -5.3494 N   0  0  0  0  0  0  0  0  0  0  0  0
    5.0259    1.3903    2.6006 H   0  0  0  0  0  0  0  0  0  0  0  0
    3.1795    1.6309   -0.2524 H   0  0  0  0  0  0  0  0  0  0  0  0
    5.7927    3.2792    1.3869 H   0  0  0  0  0  0  0  0  0  0  0  0
    5.6935    5.5698    2.2737 H   0  0  0  0  0  0  0  0  0  0  0  0
    3.5059    6.7310    2.4634 H   0  0  0  0  0  0  0  0  0  0  0  0
    1.4275    5.5799    1.7298 H   0  0  0  0  0  0  0  0  0  0  0  0
    1.5113    3.2704    0.8623 H   0  0  0  0  0  0  0  0  0  0  0  0
    5.6347   -1.9424    1.0859 H   0  0  0  0  0  0  0  0  0  0  0  0
    6.9315   -1.0058    0.3232 H   0  0  0  0  0  0  0  0  0  0  0  0
    5.2185   -3.2143   -0.9562 H   0  0  0  0  0  0  0  0  0  0  0  0
    6.9002   -3.3272   -0.4958 H   0  0  0  0  0  0  0  0  0  0  0  0
    7.5368   -1.6700   -2.2197 H   0  0  0  0  0  0  0  0  0  0  0  0
    5.8532   -1.4676   -2.7385 H   0  0  0  0  0  0  0  0  0  0  0  0
   10.4896   -5.0712   -3.6053 H   0  0  0  0  0  0  0  0  0  0  0  0
   11.8327   -6.5417   -5.4168 H   0  0  0  0  0  0  0  0  0  0  0  0
   10.5280   -7.2628   -8.1120 H   0  0  0  0  0  0  0  0  0  0  0  0
    8.2420   -7.6876   -9.0070 H   0  0  0  0  0  0  0  0  0  0  0  0
    6.3677   -8.0005   -7.5457 H   0  0  0  0  0  0  0  0  0  0  0  0
    6.9017   -7.3865   -3.9127 H   0  0  0  0  0  0  0  0  0  0  0  0
    5.2930   -6.5807   -2.8002 H   0  0  0  0  0  0  0  0  0  0  0  0
    5.1769   -8.3720   -2.8691 H   0  0  0  0  0  0  0  0  0  0  0  0
    2.4208   -8.3290   -2.9647 H   0  0  0  0  0  0  0  0  0  0  0  0
    1.9282   -9.9435   -4.7729 H   0  0  0  0  0  0  0  0  0  0  0  0
    3.1481   -9.7131   -6.9159 H   0  0  0  0  0  0  0  0  0  0  0  0
    4.4462   -7.6977   -7.4247 H   0  0  0  0  0  0  0  0  0  0  0  0
  1  2  2  0  0  0  0
  1 39  1  0  0  0  0
  2  3  1  0  0  0  0
  2 10  1  0  0  0  0
  3  4  1  0  0  0  0
  3 40  1  0  0  0  0
  4  5  1  0  0  0  0
  4  9  2  0  0  0  0
  5  6  2  0  0  0  0
  5 41  1  0  0  0  0
  6  7  1  0  0  0  0
  6 42  1  0  0  0  0
  7  8  2  0  0  0  0
  7 43  1  0  0  0  0
  8  9  1  0  0  0  0
  8 44  1  0  0  0  0
  9 45  1  0  0  0  0
 10 11  1  0  0  0  0
 11 12  1  0  0  0  0
 11 46  1  0  0  0  0
 11 47  1  0  0  0  0
 12 13  1  0  0  0  0
 12 48  1  0  0  0  0
 12 49  1  0  0  0  0
 13 14  1  0  0  0  0
 13 50  1  0  0  0  0
 13 51  1  0  0  0  0
 14 15  1  0  0  0  0
 14 19  1  0  0  0  0
 15 16  2  0  0  0  0
 15 17  1  0  0  0  0
 17 18  2  0  0  0  0
 17 38  1  0  0  0  0
 18 19  1  0  0  0  0
 18 21  1  0  0  0  0
 19 20  2  0  0  0  0
 21 22  1  0  0  0  0
 21 29  1  0  0  0  0
 22 23  2  0  0  0  0
 22 52  1  0  0  0  0
 23 24  1  0  0  0  0
 23 53  1  0  0  0  0
 24 25  1  0  0  0  0
 24 29  2  0  0  0  0
 25 26  2  0  0  0  0
 25 54  1  0  0  0  0
 26 27  1  0  0  0  0
 26 55  1  0  0  0  0
 27 28  2  0  0  0  0
 27 56  1  0  0  0  0
 28 29  1  0  0  0  0
 28 30  1  0  0  0  0
 30 31  1  0  0  0  0
 30 38  1  0  0  0  0
 30 57  1  0  0  0  0
 31 32  1  0  0  0  0
 31 58  1  0  0  0  0
 31 59  1  0  0  0  0
 32 33  1  0  0  0  0
 32 37  2  0  0  0  0
 33 34  2  0  0  0  0
 33 60  1  0  0  0  0
 34 35  1  0  0  0  0
 34 61  1  0  0  0  0
 35 36  2  0  0  0  0
 35 62  1  0  0  0  0
 36 37  1  0  0  0  0
 36 63  1  0  0  0  0
 37 38  1  0  0  0  0
M  END
$$$$
