CHEMBL204220
 OpenBabel04072215363D

 46 50  0  0  0  0  0  0  0  0999 V2000
   -1.9740   -3.0910   -0.3673 C   0  0  0  0  0  0  0  0  0  0  0  0
   -1.0289   -2.5980   -1.4289 C   0  0  0  0  0  0  0  0  0  0  0  0
   -1.5526   -2.4759   -2.7276 C   0  0  0  0  0  0  0  0  0  0  0  0
   -0.7863   -1.9391   -3.7750 C   0  0  0  0  0  0  0  0  0  0  0  0
    0.5022   -1.5178   -3.5282 C   0  0  0  0  0  0  0  0  0  0  0  0
    1.0445   -1.6761   -2.2489 C   0  0  0  0  0  0  0  0  0  0  0  0
    0.3291   -2.2834   -1.1973 C   0  0  0  0  0  0  0  0  0  0  0  0
    0.9645   -2.4346    0.0689 N   0  0  0  0  0  0  0  0  0  0  0  0
    2.3715   -2.6357    0.2146 C   0  0  0  0  0  0  0  0  0  0  0  0
    3.0271   -3.3406   -0.7300 N   0  0  0  0  0  0  0  0  0  0  0  0
    4.3907   -3.4583   -0.7084 N   0  0  0  0  0  0  0  0  0  0  0  0
    5.1366   -2.7843    0.1890 C   0  0  0  0  0  0  0  0  0  0  0  0
    6.6171   -2.9413    0.0207 C   0  0  0  0  0  0  0  0  0  0  0  0
    7.4296   -3.0133    1.1771 C   0  0  0  0  0  0  0  0  0  0  0  0
    8.8166   -2.9903    1.1281 C   0  0  0  0  0  0  0  0  0  0  0  0
    9.4469   -3.0279   -0.1016 C   0  0  0  0  0  0  0  0  0  0  0  0
    8.6934   -3.0842   -1.2825 C   0  0  0  0  0  0  0  0  0  0  0  0
    9.3417   -3.1887   -2.5158 C   0  0  0  0  0  0  0  0  0  0  0  0
    8.7247   -3.2548   -3.7143 N   0  0  0  0  0  0  0  0  0  0  0  0
    7.3833   -3.1987   -3.6876 C   0  0  0  0  0  0  0  0  0  0  0  0
    6.6395   -3.0704   -2.5223 C   0  0  0  0  0  0  0  0  0  0  0  0
    7.2764   -3.0261   -1.2566 C   0  0  0  0  0  0  0  0  0  0  0  0
    4.5032   -2.0344    1.2160 C   0  0  0  0  0  0  0  0  0  0  0  0
    5.1900   -1.2414    2.1799 C   0  0  0  0  0  0  0  0  0  0  0  0
    4.5480   -0.6258    3.2483 C   0  0  0  0  0  0  0  0  0  0  0  0
    3.1758   -0.7327    3.3590 C   0  0  0  0  0  0  0  0  0  0  0  0
    2.4523   -1.4106    2.3752 C   0  0  0  0  0  0  0  0  0  0  0  0
    3.0854   -2.0472    1.2793 C   0  0  0  0  0  0  0  0  0  0  0  0
   -3.0154   -2.9655   -0.6937 H   0  0  0  0  0  0  0  0  0  0  0  0
   -1.8766   -2.5111    0.5554 H   0  0  0  0  0  0  0  0  0  0  0  0
   -1.8140   -4.1535   -0.1657 H   0  0  0  0  0  0  0  0  0  0  0  0
   -2.5749   -2.7812   -2.9474 H   0  0  0  0  0  0  0  0  0  0  0  0
   -1.2086   -1.8612   -4.7726 H   0  0  0  0  0  0  0  0  0  0  0  0
    1.1000   -1.0796   -4.3171 H   0  0  0  0  0  0  0  0  0  0  0  0
    2.0651   -1.3235   -2.0967 H   0  0  0  0  0  0  0  0  0  0  0  0
    0.4712   -3.0628    0.6915 H   0  0  0  0  0  0  0  0  0  0  0  0
    6.9799   -3.0650    2.1668 H   0  0  0  0  0  0  0  0  0  0  0  0
    9.3911   -2.9517    2.0497 H   0  0  0  0  0  0  0  0  0  0  0  0
   10.5342   -3.0424   -0.1289 H   0  0  0  0  0  0  0  0  0  0  0  0
   10.4262   -3.2374   -2.5749 H   0  0  0  0  0  0  0  0  0  0  0  0
    6.8944   -3.2674   -4.6555 H   0  0  0  0  0  0  0  0  0  0  0  0
    5.5600   -3.0369   -2.6332 H   0  0  0  0  0  0  0  0  0  0  0  0
    6.2620   -1.0729    2.1160 H   0  0  0  0  0  0  0  0  0  0  0  0
    5.1282   -0.0666    3.9787 H   0  0  0  0  0  0  0  0  0  0  0  0
    2.6610   -0.2599    4.1894 H   0  0  0  0  0  0  0  0  0  0  0  0
    1.3706   -1.4421    2.4721 H   0  0  0  0  0  0  0  0  0  0  0  0
  1  2  1  0  0  0  0
  1 29  1  0  0  0  0
  1 30  1  0  0  0  0
  1 31  1  0  0  0  0
  2  3  1  0  0  0  0
  2  7  2  0  0  0  0
  3  4  2  0  0  0  0
  3 32  1  0  0  0  0
  4  5  1  0  0  0  0
  4 33  1  0  0  0  0
  5  6  2  0  0  0  0
  5 34  1  0  0  0  0
  6  7  1  0  0  0  0
  6 35  1  0  0  0  0
  7  8  1  0  0  0  0
  8  9  1  0  0  0  0
  8 36  1  0  0  0  0
  9 10  1  0  0  0  0
  9 28  2  0  0  0  0
 10 11  2  0  0  0  0
 11 12  1  0  0  0  0
 12 13  1  0  0  0  0
 12 23  2  0  0  0  0
 13 14  1  0  0  0  0
 13 22  2  0  0  0  0
 14 15  2  0  0  0  0
 14 37  1  0  0  0  0
 15 16  1  0  0  0  0
 15 38  1  0  0  0  0
 16 17  2  0  0  0  0
 16 39  1  0  0  0  0
 17 18  1  0  0  0  0
 17 22  1  0  0  0  0
 18 19  2  0  0  0  0
 18 40  1  0  0  0  0
 19 20  1  0  0  0  0
 20 21  2  0  0  0  0
 20 41  1  0  0  0  0
 21 22  1  0  0  0  0
 21 42  1  0  0  0  0
 23 24  1  0  0  0  0
 23 28  1  0  0  0  0
 24 25  2  0  0  0  0
 24 43  1  0  0  0  0
 25 26  1  0  0  0  0
 25 44  1  0  0  0  0
 26 27  2  0  0  0  0
 26 45  1  0  0  0  0
 27 28  1  0  0  0  0
 27 46  1  0  0  0  0
M  END
$$$$
