CHEMBL3696095
 OpenBabel04072215373D

 68 71  0  0  0  0  0  0  0  0999 V2000
   -5.5945   -5.5286    3.5748 C   0  0  0  0  0  0  0  0  0  0  0  0
   -5.2909   -4.1465    3.0828 C   0  0  0  0  0  0  0  0  0  0  0  0
   -6.3291   -3.2895    2.7350 C   0  0  0  0  0  0  0  0  0  0  0  0
   -6.0543   -2.0024    2.2659 C   0  0  0  0  0  0  0  0  0  0  0  0
   -4.7450   -1.5318    2.1401 C   0  0  0  0  0  0  0  0  0  0  0  0
   -4.4383   -0.2309    1.6693 N   0  0  0  0  0  0  0  0  0  0  0  0
   -5.3707    0.7537    1.4153 C   0  0  0  0  0  0  0  0  0  0  0  0
   -6.5726    0.6563    1.6343 O   0  0  0  0  0  0  0  0  0  0  0  0
   -4.8172    1.8829    0.8239 N   0  0  0  0  0  0  0  0  0  0  0  0
   -5.6638    2.9720    0.5137 C   0  0  0  0  0  0  0  0  0  0  0  0
   -6.6038    3.4274    1.4414 C   0  0  0  0  0  0  0  0  0  0  0  0
   -7.5035    4.4324    1.0983 C   0  0  0  0  0  0  0  0  0  0  0  0
   -7.4669    5.0188   -0.1744 C   0  0  0  0  0  0  0  0  0  0  0  0
   -8.3652    6.1472   -0.4633 C   0  0  0  0  0  0  0  0  0  0  0  0
   -8.5945    6.9936    0.5501 N   0  0  0  0  0  0  0  0  0  0  0  0
   -9.5276    8.2450    0.0452 S   0  0  0  0  0  0  0  0  0  0  0  0
   -9.6869    7.7026   -1.5559 C   0  0  0  0  0  0  0  0  0  0  0  0
  -10.3712    8.4801   -2.4767 N   0  0  0  0  0  0  0  0  0  0  0  0
  -11.6307    8.9467   -2.1570 C   0  0  0  0  0  0  0  0  0  0  0  0
  -12.2625    8.6633   -1.1450 O   0  0  0  0  0  0  0  0  0  0  0  0
  -12.1410    9.7844   -3.1168 N   0  0  0  0  0  0  0  0  0  0  0  0
  -13.4828   10.3098   -2.9641 C   0  0  0  0  0  0  0  0  0  0  0  0
  -13.8185   11.3358   -4.0346 C   0  0  0  0  0  0  0  0  0  0  0  0
  -15.2269   11.9099   -3.8306 C   0  0  0  0  0  0  0  0  0  0  0  0
  -15.6169   12.8312   -4.9112 N   0  0  0  0  0  0  0  0  0  0  0  0
  -14.8258   14.0698   -4.9556 C   0  0  0  0  0  0  0  0  0  0  0  0
  -15.4977   15.0148   -3.9801 C   0  0  0  0  0  0  0  0  0  0  0  0
  -16.9691   14.6659   -4.0942 C   0  0  0  0  0  0  0  0  0  0  0  0
  -17.0103   13.2869   -4.7465 C   0  0  0  0  0  0  0  0  0  0  0  0
   -9.0182    6.4997   -1.7159 C   0  0  0  0  0  0  0  0  0  0  0  0
   -9.0661    5.7730   -2.9711 C   0  0  0  0  0  0  0  0  0  0  0  0
   -9.1176    4.4114   -2.8892 N   0  0  0  0  0  0  0  0  0  0  0  0
   -9.1397    6.3342   -4.0612 O   0  0  0  0  0  0  0  0  0  0  0  0
   -6.5055    4.5732   -1.0934 C   0  0  0  0  0  0  0  0  0  0  0  0
   -5.5972    3.5625   -0.7467 C   0  0  0  0  0  0  0  0  0  0  0  0
   -3.7017   -2.3894    2.4874 C   0  0  0  0  0  0  0  0  0  0  0  0
   -3.9694   -3.6913    2.9542 C   0  0  0  0  0  0  0  0  0  0  0  0
   -6.6737   -5.7191    3.5775 H   0  0  0  0  0  0  0  0  0  0  0  0
   -5.2322   -5.6517    4.5990 H   0  0  0  0  0  0  0  0  0  0  0  0
   -5.1293   -6.2761    2.9252 H   0  0  0  0  0  0  0  0  0  0  0  0
   -7.3678   -3.6028    2.8192 H   0  0  0  0  0  0  0  0  0  0  0  0
   -6.9225   -1.4029    2.0098 H   0  0  0  0  0  0  0  0  0  0  0  0
   -3.4623    0.0433    1.6523 H   0  0  0  0  0  0  0  0  0  0  0  0
   -4.0555    1.6973    0.1894 H   0  0  0  0  0  0  0  0  0  0  0  0
   -6.6544    3.0012    2.4412 H   0  0  0  0  0  0  0  0  0  0  0  0
   -8.2260    4.7622    1.8438 H   0  0  0  0  0  0  0  0  0  0  0  0
  -10.2342    8.2301   -3.4506 H   0  0  0  0  0  0  0  0  0  0  0  0
  -11.6240    9.9444   -3.9694 H   0  0  0  0  0  0  0  0  0  0  0  0
  -13.5629   10.7566   -1.9653 H   0  0  0  0  0  0  0  0  0  0  0  0
  -14.1741    9.4603   -3.0036 H   0  0  0  0  0  0  0  0  0  0  0  0
  -13.7430   10.8693   -5.0247 H   0  0  0  0  0  0  0  0  0  0  0  0
  -13.0631   12.1272   -3.9967 H   0  0  0  0  0  0  0  0  0  0  0  0
  -15.3058   12.3852   -2.8446 H   0  0  0  0  0  0  0  0  0  0  0  0
  -15.9285   11.0645   -3.8313 H   0  0  0  0  0  0  0  0  0  0  0  0
  -14.8875   14.4804   -5.9712 H   0  0  0  0  0  0  0  0  0  0  0  0
  -13.7620   13.9473   -4.7388 H   0  0  0  0  0  0  0  0  0  0  0  0
  -15.3022   16.0641   -4.2215 H   0  0  0  0  0  0  0  0  0  0  0  0
  -15.1453   14.8311   -2.9584 H   0  0  0  0  0  0  0  0  0  0  0  0
  -17.4882   15.3985   -4.7234 H   0  0  0  0  0  0  0  0  0  0  0  0
  -17.4461   14.6688   -3.1091 H   0  0  0  0  0  0  0  0  0  0  0  0
  -17.4667   13.3721   -5.7402 H   0  0  0  0  0  0  0  0  0  0  0  0
  -17.6366   12.5896   -4.1779 H   0  0  0  0  0  0  0  0  0  0  0  0
   -9.2830    3.9262   -2.0161 H   0  0  0  0  0  0  0  0  0  0  0  0
   -9.2668    3.8971   -3.7473 H   0  0  0  0  0  0  0  0  0  0  0  0
   -6.4401    5.0082   -2.0874 H   0  0  0  0  0  0  0  0  0  0  0  0
   -4.8845    3.2148   -1.4886 H   0  0  0  0  0  0  0  0  0  0  0  0
   -2.6665   -2.0747    2.4068 H   0  0  0  0  0  0  0  0  0  0  0  0
   -3.1443   -4.3448    3.2178 H   0  0  0  0  0  0  0  0  0  0  0  0
  1  2  1  0  0  0  0
  1 38  1  0  0  0  0
  1 39  1  0  0  0  0
  1 40  1  0  0  0  0
  2  3  1  0  0  0  0
  2 37  2  0  0  0  0
  3  4  2  0  0  0  0
  3 41  1  0  0  0  0
  4  5  1  0  0  0  0
  4 42  1  0  0  0  0
  5  6  1  0  0  0  0
  5 36  2  0  0  0  0
  6  7  1  0  0  0  0
  6 43  1  0  0  0  0
  7  8  2  0  0  0  0
  7  9  1  0  0  0  0
  9 10  1  0  0  0  0
  9 44  1  0  0  0  0
 10 11  1  0  0  0  0
 10 35  2  0  0  0  0
 11 12  2  0  0  0  0
 11 45  1  0  0  0  0
 12 13  1  0  0  0  0
 12 46  1  0  0  0  0
 13 14  1  0  0  0  0
 13 34  2  0  0  0  0
 14 15  2  0  0  0  0
 14 30  1  0  0  0  0
 15 16  1  0  0  0  0
 16 17  1  0  0  0  0
 17 18  1  0  0  0  0
 17 30  2  0  0  0  0
 18 19  1  0  0  0  0
 18 47  1  0  0  0  0
 19 20  2  0  0  0  0
 19 21  1  0  0  0  0
 21 22  1  0  0  0  0
 21 48  1  0  0  0  0
 22 23  1  0  0  0  0
 22 49  1  0  0  0  0
 22 50  1  0  0  0  0
 23 24  1  0  0  0  0
 23 51  1  0  0  0  0
 23 52  1  0  0  0  0
 24 25  1  0  0  0  0
 24 53  1  0  0  0  0
 24 54  1  0  0  0  0
 25 26  1  0  0  0  0
 25 29  1  0  0  0  0
 26 27  1  0  0  0  0
 26 55  1  0  0  0  0
 26 56  1  0  0  0  0
 27 28  1  0  0  0  0
 27 57  1  0  0  0  0
 27 58  1  0  0  0  0
 28 29  1  0  0  0  0
 28 59  1  0  0  0  0
 28 60  1  0  0  0  0
 29 61  1  0  0  0  0
 29 62  1  0  0  0  0
 30 31  1  0  0  0  0
 31 32  1  0  0  0  0
 31 33  2  0  0  0  0
 32 63  1  0  0  0  0
 32 64  1  0  0  0  0
 34 35  1  0  0  0  0
 34 65  1  0  0  0  0
 35 66  1  0  0  0  0
 36 37  1  0  0  0  0
 36 67  1  0  0  0  0
 37 68  1  0  0  0  0
M  END
$$$$
