CHEMBL381182
 OpenBabel04072215373D

 46 49  0  0  0  0  0  0  0  0999 V2000
   -2.7977   -2.1548    9.9122 F   0  0  0  0  0  0  0  0  0  0  0  0
   -1.9580   -3.2058    9.6955 C   0  0  0  0  0  0  0  0  0  0  0  0
   -1.8650   -3.8590   10.8868 F   0  0  0  0  0  0  0  0  0  0  0  0
   -2.6233   -4.0476    8.8574 F   0  0  0  0  0  0  0  0  0  0  0  0
   -0.6098   -2.7983    9.1542 C   0  0  0  0  0  0  0  0  0  0  0  0
   -0.3173   -1.4590    8.8731 C   0  0  0  0  0  0  0  0  0  0  0  0
    0.9365   -1.0892    8.3692 C   0  0  0  0  0  0  0  0  0  0  0  0
    1.9294   -2.0412    8.1143 C   0  0  0  0  0  0  0  0  0  0  0  0
    3.2192   -1.7347    7.6430 N   0  0  0  0  0  0  0  0  0  0  0  0
    3.8213   -0.5443    7.4616 C   0  0  0  0  0  0  0  0  0  0  0  0
    4.9075   -0.2837    6.7651 N   0  0  0  0  0  0  0  0  0  0  0  0
    5.1605    1.0643    6.9087 N   0  0  0  0  0  0  0  0  0  0  0  0
    4.2162    1.5439    7.6889 C   0  0  0  0  0  0  0  0  0  0  0  0
    3.9589    2.8984    8.1695 C   0  0  0  0  0  0  0  0  0  0  0  0
    3.0242    3.1042    9.2032 C   0  0  0  0  0  0  0  0  0  0  0  0
    2.7885    4.3766    9.7185 C   0  0  0  0  0  0  0  0  0  0  0  0
    3.5001    5.4253    9.1815 C   0  0  0  0  0  0  0  0  0  0  0  0
    4.3844    5.2864    8.1731 N   0  0  0  0  0  0  0  0  0  0  0  0
    4.6157    4.0377    7.6701 C   0  0  0  0  0  0  0  0  0  0  0  0
    5.6294    4.0086    6.5420 C   0  0  0  0  0  0  0  0  0  0  0  0
    5.0039    3.7212    5.1721 C   0  0  0  0  0  0  0  0  0  0  0  0
    6.0094    3.6723    4.0461 C   0  0  0  0  0  0  0  0  0  0  0  0
    6.7551    2.5152    3.7975 C   0  0  0  0  0  0  0  0  0  0  0  0
    7.6200    2.5001    2.7116 C   0  0  0  0  0  0  0  0  0  0  0  0
    7.7969    3.5455    1.8751 N   0  0  0  0  0  0  0  0  0  0  0  0
    7.0783    4.6570    2.1413 C   0  0  0  0  0  0  0  0  0  0  0  0
    6.1904    4.7701    3.2017 C   0  0  0  0  0  0  0  0  0  0  0  0
    3.3383    0.5689    8.0904 O   0  0  0  0  0  0  0  0  0  0  0  0
    1.6324   -3.3810    8.4158 C   0  0  0  0  0  0  0  0  0  0  0  0
    0.3813   -3.7586    8.9209 C   0  0  0  0  0  0  0  0  0  0  0  0
   -1.0657   -0.6857    9.0426 H   0  0  0  0  0  0  0  0  0  0  0  0
    1.0956   -0.0369    8.1570 H   0  0  0  0  0  0  0  0  0  0  0  0
    3.6908   -2.5173    7.2049 H   0  0  0  0  0  0  0  0  0  0  0  0
    2.4672    2.2658    9.6236 H   0  0  0  0  0  0  0  0  0  0  0  0
    2.0803    4.5313   10.5242 H   0  0  0  0  0  0  0  0  0  0  0  0
    3.3791    6.4347    9.5637 H   0  0  0  0  0  0  0  0  0  0  0  0
    6.4336    3.3051    6.7877 H   0  0  0  0  0  0  0  0  0  0  0  0
    6.1187    4.9929    6.4959 H   0  0  0  0  0  0  0  0  0  0  0  0
    4.2423    4.4796    4.9482 H   0  0  0  0  0  0  0  0  0  0  0  0
    4.4577    2.7718    5.1721 H   0  0  0  0  0  0  0  0  0  0  0  0
    6.6574    1.6338    4.4236 H   0  0  0  0  0  0  0  0  0  0  0  0
    8.2055    1.6160    2.4748 H   0  0  0  0  0  0  0  0  0  0  0  0
    7.2326    5.4824    1.4519 H   0  0  0  0  0  0  0  0  0  0  0  0
    5.6418    5.6943    3.3496 H   0  0  0  0  0  0  0  0  0  0  0  0
    2.3818   -4.1562    8.2643 H   0  0  0  0  0  0  0  0  0  0  0  0
    0.1866   -4.8089    9.1354 H   0  0  0  0  0  0  0  0  0  0  0  0
  1  2  1  0  0  0  0
  2  3  1  0  0  0  0
  2  4  1  0  0  0  0
  2  5  1  0  0  0  0
  5  6  1  0  0  0  0
  5 30  2  0  0  0  0
  6  7  2  0  0  0  0
  6 31  1  0  0  0  0
  7  8  1  0  0  0  0
  7 32  1  0  0  0  0
  8  9  1  0  0  0  0
  8 29  2  0  0  0  0
  9 10  1  0  0  0  0
  9 33  1  0  0  0  0
 10 11  2  0  0  0  0
 10 28  1  0  0  0  0
 11 12  1  0  0  0  0
 12 13  2  0  0  0  0
 13 14  1  0  0  0  0
 13 28  1  0  0  0  0
 14 15  1  0  0  0  0
 14 19  2  0  0  0  0
 15 16  2  0  0  0  0
 15 34  1  0  0  0  0
 16 17  1  0  0  0  0
 16 35  1  0  0  0  0
 17 18  2  0  0  0  0
 17 36  1  0  0  0  0
 18 19  1  0  0  0  0
 19 20  1  0  0  0  0
 20 21  1  0  0  0  0
 20 37  1  0  0  0  0
 20 38  1  0  0  0  0
 21 22  1  0  0  0  0
 21 39  1  0  0  0  0
 21 40  1  0  0  0  0
 22 23  1  0  0  0  0
 22 27  2  0  0  0  0
 23 24  2  0  0  0  0
 23 41  1  0  0  0  0
 24 25  1  0  0  0  0
 24 42  1  0  0  0  0
 25 26  2  0  0  0  0
 26 27  1  0  0  0  0
 26 43  1  0  0  0  0
 27 44  1  0  0  0  0
 29 30  1  0  0  0  0
 29 45  1  0  0  0  0
 30 46  1  0  0  0  0
M  END
$$$$
