CHEMBL4561931
 OpenBabel04072215383D

 33 35  0  0  0  0  0  0  0  0999 V2000
    3.7441   -0.2363   -0.3535 C   0  0  0  0  0  0  0  0  0  0  0  0
    2.5533   -0.0703    0.5766 C   0  0  0  0  0  0  0  0  0  0  0  0
    2.8313   -0.5980    1.8998 N   0  0  0  0  0  0  0  0  0  0  0  0
    2.5489   -1.8851    2.1338 N   0  0  0  0  0  0  0  0  0  0  0  0
    3.0039   -2.1310    3.3736 C   0  0  0  0  0  0  0  0  0  0  0  0
    2.7506   -3.4620    3.9522 C   0  0  0  0  0  0  0  0  0  0  0  0
    3.5984   -4.0473    4.8902 C   0  0  0  0  0  0  0  0  0  0  0  0
    3.3015   -5.2698    5.5033 C   0  0  0  0  0  0  0  0  0  0  0  0
    2.1921   -5.9834    5.0399 C   0  0  0  0  0  0  0  0  0  0  0  0
    1.6396   -7.5463    5.5035 S   0  0  0  0  0  0  0  0  0  0  0  0
    0.4332   -7.4611    4.2936 C   0  0  0  0  0  0  0  0  0  0  0  0
    0.3414   -6.3287    3.6353 N   0  0  0  0  0  0  0  0  0  0  0  0
    1.3567   -5.4767    4.0435 C   0  0  0  0  0  0  0  0  0  0  0  0
    1.6168   -4.1877    3.5341 C   0  0  0  0  0  0  0  0  0  0  0  0
    3.6081   -0.9481    3.9353 C   0  0  0  0  0  0  0  0  0  0  0  0
    4.2563   -0.7543    5.2258 C   0  0  0  0  0  0  0  0  0  0  0  0
    4.0760    0.4652    5.8145 N   0  0  0  0  0  0  0  0  0  0  0  0
    4.9454   -1.5834    5.8086 O   0  0  0  0  0  0  0  0  0  0  0  0
    3.4181    0.0344    2.9667 C   0  0  0  0  0  0  0  0  0  0  0  0
    3.7308    1.3544    2.9570 N   0  0  0  0  0  0  0  0  0  0  0  0
    3.4970    0.1117   -1.3612 H   0  0  0  0  0  0  0  0  0  0  0  0
    4.0496   -1.2864   -0.4210 H   0  0  0  0  0  0  0  0  0  0  0  0
    4.6061    0.3367    0.0044 H   0  0  0  0  0  0  0  0  0  0  0  0
    1.6843   -0.6075    0.1788 H   0  0  0  0  0  0  0  0  0  0  0  0
    2.2706    0.9828    0.6712 H   0  0  0  0  0  0  0  0  0  0  0  0
    4.5413   -3.5873    5.1581 H   0  0  0  0  0  0  0  0  0  0  0  0
    3.9503   -5.6686    6.2766 H   0  0  0  0  0  0  0  0  0  0  0  0
   -0.2191   -8.2998    4.0919 H   0  0  0  0  0  0  0  0  0  0  0  0
    0.9429   -3.7832    2.7830 H   0  0  0  0  0  0  0  0  0  0  0  0
    3.3432    1.0848    5.4838 H   0  0  0  0  0  0  0  0  0  0  0  0
    4.3988    0.5386    6.7700 H   0  0  0  0  0  0  0  0  0  0  0  0
    4.4289    1.7063    3.6119 H   0  0  0  0  0  0  0  0  0  0  0  0
    3.6894    1.9129    2.1078 H   0  0  0  0  0  0  0  0  0  0  0  0
  1  2  1  0  0  0  0
  1 21  1  0  0  0  0
  1 22  1  0  0  0  0
  1 23  1  0  0  0  0
  2  3  1  0  0  0  0
  2 24  1  0  0  0  0
  2 25  1  0  0  0  0
  3  4  1  0  0  0  0
  3 19  1  0  0  0  0
  4  5  2  0  0  0  0
  5  6  1  0  0  0  0
  5 15  1  0  0  0  0
  6  7  1  0  0  0  0
  6 14  2  0  0  0  0
  7  8  2  0  0  0  0
  7 26  1  0  0  0  0
  8  9  1  0  0  0  0
  8 27  1  0  0  0  0
  9 10  1  0  0  0  0
  9 13  2  0  0  0  0
 10 11  1  0  0  0  0
 11 12  2  0  0  0  0
 11 28  1  0  0  0  0
 12 13  1  0  0  0  0
 13 14  1  0  0  0  0
 14 29  1  0  0  0  0
 15 16  1  0  0  0  0
 15 19  2  0  0  0  0
 16 17  1  0  0  0  0
 16 18  2  0  0  0  0
 17 30  1  0  0  0  0
 17 31  1  0  0  0  0
 19 20  1  0  0  0  0
 20 32  1  0  0  0  0
 20 33  1  0  0  0  0
M  END
$$$$
