CHEMBL3958800
 OpenBabel04072215373D

 66 70  0  0  0  0  0  0  0  0999 V2000
    2.6183    0.2325    0.1084 C   0  0  0  0  0  0  0  0  0  0  0  0
    1.1211    0.0806    0.1589 C   0  0  0  0  0  0  0  0  0  0  0  0
    0.3707    1.2743    0.2219 C   0  0  0  0  0  0  0  0  0  0  0  0
   -1.0258    1.2737    0.1735 C   0  0  0  0  0  0  0  0  0  0  0  0
   -1.7926    2.4168    0.2588 O   0  0  0  0  0  0  0  0  0  0  0  0
   -1.3499    3.5515   -0.4151 C   0  0  0  0  0  0  0  0  0  0  0  0
   -1.7952    4.7719    0.0460 C   0  0  0  0  0  0  0  0  0  0  0  0
   -1.3547    5.8755   -0.6548 C   0  0  0  0  0  0  0  0  0  0  0  0
   -1.7905    7.1565   -0.2598 N   0  0  0  0  0  0  0  0  0  0  0  0
   -1.4878    8.3101   -0.9502 C   0  0  0  0  0  0  0  0  0  0  0  0
   -0.8186    8.4228   -1.9654 O   0  0  0  0  0  0  0  0  0  0  0  0
   -2.0476    9.5482   -0.3218 C   0  0  0  0  0  0  0  0  0  0  0  0
   -1.9283   10.8826   -1.0310 C   0  0  0  0  0  0  0  0  0  0  0  0
   -1.0897   10.6068    0.1807 C   0  0  0  0  0  0  0  0  0  0  0  0
   -0.5211    5.7618   -1.6966 N   0  0  0  0  0  0  0  0  0  0  0  0
   -0.1627    4.5353   -2.0712 C   0  0  0  0  0  0  0  0  0  0  0  0
   -0.5576    3.4052   -1.4910 N   0  0  0  0  0  0  0  0  0  0  0  0
   -1.6874    0.0609    0.1025 C   0  0  0  0  0  0  0  0  0  0  0  0
   -0.9566   -1.1343    0.0732 C   0  0  0  0  0  0  0  0  0  0  0  0
    0.4466   -1.1549    0.1223 C   0  0  0  0  0  0  0  0  0  0  0  0
    1.1754   -2.3841    0.1694 N   0  0  0  0  0  0  0  0  0  0  0  0
    0.6270   -3.6432    0.3950 C   0  0  0  0  0  0  0  0  0  0  0  0
   -0.5688   -3.8881    0.5110 O   0  0  0  0  0  0  0  0  0  0  0  0
    1.6004   -4.6266    0.5680 N   0  0  0  0  0  0  0  0  0  0  0  0
    1.2270   -5.9641    0.8857 C   0  0  0  0  0  0  0  0  0  0  0  0
    1.8758   -6.6149    1.9451 C   0  0  0  0  0  0  0  0  0  0  0  0
    1.5037   -7.9023    2.3870 C   0  0  0  0  0  0  0  0  0  0  0  0
    2.0953   -8.4699    3.5045 N   0  0  0  0  0  0  0  0  0  0  0  0
    1.8388   -9.8245    4.0021 C   0  0  0  0  0  0  0  0  0  0  0  0
    1.6784   -9.6446    5.5069 C   0  0  0  0  0  0  0  0  0  0  0  0
    2.6389   -8.5150    5.8240 C   0  0  0  0  0  0  0  0  0  0  0  0
    2.5477   -7.6031    4.6027 C   0  0  0  0  0  0  0  0  0  0  0  0
    0.5135   -8.5539    1.6377 C   0  0  0  0  0  0  0  0  0  0  0  0
   -0.1364   -7.9404    0.5483 C   0  0  0  0  0  0  0  0  0  0  0  0
   -1.2109   -8.6796   -0.2141 C   0  0  0  0  0  0  0  0  0  0  0  0
   -1.4260   -9.9490    0.2412 F   0  0  0  0  0  0  0  0  0  0  0  0
   -2.4221   -8.0620   -0.1607 F   0  0  0  0  0  0  0  0  0  0  0  0
   -0.9131   -8.8135   -1.5363 F   0  0  0  0  0  0  0  0  0  0  0  0
    0.2181   -6.6347    0.1909 C   0  0  0  0  0  0  0  0  0  0  0  0
    2.9181    1.2741    0.2846 H   0  0  0  0  0  0  0  0  0  0  0  0
    2.9921   -0.0440   -0.8828 H   0  0  0  0  0  0  0  0  0  0  0  0
    3.1057   -0.3711    0.8778 H   0  0  0  0  0  0  0  0  0  0  0  0
    0.8930    2.2248    0.2958 H   0  0  0  0  0  0  0  0  0  0  0  0
   -2.4549    4.8377    0.9002 H   0  0  0  0  0  0  0  0  0  0  0  0
   -2.3737    7.2221    0.5570 H   0  0  0  0  0  0  0  0  0  0  0  0
   -2.9654    9.4065    0.2404 H   0  0  0  0  0  0  0  0  0  0  0  0
   -2.7444   11.5890   -0.9392 H   0  0  0  0  0  0  0  0  0  0  0  0
   -1.4321   10.9108   -1.9966 H   0  0  0  0  0  0  0  0  0  0  0  0
   -1.3357   11.1284    1.0962 H   0  0  0  0  0  0  0  0  0  0  0  0
   -0.0265   10.4525    0.0227 H   0  0  0  0  0  0  0  0  0  0  0  0
    0.5134    4.4563   -2.9147 H   0  0  0  0  0  0  0  0  0  0  0  0
   -2.7718    0.0191    0.0612 H   0  0  0  0  0  0  0  0  0  0  0  0
   -1.5381   -2.0460   -0.0122 H   0  0  0  0  0  0  0  0  0  0  0  0
    2.1761   -2.3275    0.0647 H   0  0  0  0  0  0  0  0  0  0  0  0
    2.4554   -4.2999    0.9924 H   0  0  0  0  0  0  0  0  0  0  0  0
    2.6593   -6.0824    2.4751 H   0  0  0  0  0  0  0  0  0  0  0  0
    2.7144  -10.4472    3.7840 H   0  0  0  0  0  0  0  0  0  0  0  0
    0.9575  -10.3266    3.5991 H   0  0  0  0  0  0  0  0  0  0  0  0
    1.9032  -10.5589    6.0637 H   0  0  0  0  0  0  0  0  0  0  0  0
    0.6503   -9.3436    5.7417 H   0  0  0  0  0  0  0  0  0  0  0  0
    3.6578   -8.9030    5.9331 H   0  0  0  0  0  0  0  0  0  0  0  0
    2.3752   -7.9914    6.7482 H   0  0  0  0  0  0  0  0  0  0  0  0
    3.5261   -7.1626    4.3829 H   0  0  0  0  0  0  0  0  0  0  0  0
    1.8263   -6.8001    4.7970 H   0  0  0  0  0  0  0  0  0  0  0  0
    0.1947   -9.5581    1.9044 H   0  0  0  0  0  0  0  0  0  0  0  0
   -0.2934   -6.1497   -0.6386 H   0  0  0  0  0  0  0  0  0  0  0  0
  1  2  1  0  0  0  0
  1 40  1  0  0  0  0
  1 41  1  0  0  0  0
  1 42  1  0  0  0  0
  2  3  1  0  0  0  0
  2 20  2  0  0  0  0
  3  4  2  0  0  0  0
  3 43  1  0  0  0  0
  4  5  1  0  0  0  0
  4 18  1  0  0  0  0
  5  6  1  0  0  0  0
  6  7  1  0  0  0  0
  6 17  2  0  0  0  0
  7  8  2  0  0  0  0
  7 44  1  0  0  0  0
  8  9  1  0  0  0  0
  8 15  1  0  0  0  0
  9 10  1  0  0  0  0
  9 45  1  0  0  0  0
 10 11  2  0  0  0  0
 10 12  1  0  0  0  0
 12 13  1  0  0  0  0
 12 14  1  0  0  0  0
 12 46  1  0  0  0  0
 13 14  1  0  0  0  0
 13 47  1  0  0  0  0
 13 48  1  0  0  0  0
 14 49  1  0  0  0  0
 14 50  1  0  0  0  0
 15 16  2  0  0  0  0
 16 17  1  0  0  0  0
 16 51  1  0  0  0  0
 18 19  2  0  0  0  0
 18 52  1  0  0  0  0
 19 20  1  0  0  0  0
 19 53  1  0  0  0  0
 20 21  1  0  0  0  0
 21 22  1  0  0  0  0
 21 54  1  0  0  0  0
 22 23  2  0  0  0  0
 22 24  1  0  0  0  0
 24 25  1  0  0  0  0
 24 55  1  0  0  0  0
 25 26  1  0  0  0  0
 25 39  2  0  0  0  0
 26 27  2  0  0  0  0
 26 56  1  0  0  0  0
 27 28  1  0  0  0  0
 27 33  1  0  0  0  0
 28 29  1  0  0  0  0
 28 32  1  0  0  0  0
 29 30  1  0  0  0  0
 29 57  1  0  0  0  0
 29 58  1  0  0  0  0
 30 31  1  0  0  0  0
 30 59  1  0  0  0  0
 30 60  1  0  0  0  0
 31 32  1  0  0  0  0
 31 61  1  0  0  0  0
 31 62  1  0  0  0  0
 32 63  1  0  0  0  0
 32 64  1  0  0  0  0
 33 34  2  0  0  0  0
 33 65  1  0  0  0  0
 34 35  1  0  0  0  0
 34 39  1  0  0  0  0
 35 36  1  0  0  0  0
 35 37  1  0  0  0  0
 35 38  1  0  0  0  0
 39 66  1  0  0  0  0
M  END
$$$$
