CHEMBL3976183
 OpenBabel04072215373D

 89 93  0  0  1  0  0  0  0  0999 V2000
    1.3478    2.6591    4.5168 C   0  0  0  0  0  0  0  0  0  0  0  0
    2.6244    3.0026    4.1229 O   0  0  0  0  0  0  0  0  0  0  0  0
    3.2686    2.5272    3.0134 C   0  0  0  0  0  0  0  0  0  0  0  0
    2.6532    1.6050    2.1614 C   0  0  0  0  0  0  0  0  0  0  0  0
    3.3295    1.0771    1.0713 C   0  0  0  0  0  0  0  0  0  0  0  0
    2.6563    0.1753    0.3092 O   0  0  0  0  0  0  0  0  0  0  0  0
    3.1159   -0.4548   -0.8239 C   0  0  0  0  0  0  0  0  0  0  0  0
    4.6692    1.4662    0.8214 C   0  0  0  0  0  0  0  0  0  0  0  0
    5.3398    2.4387    1.6273 C   0  0  0  0  0  0  0  0  0  0  0  0
    6.7754    2.7819    1.4939 N   0  0  0  0  0  0  0  0  0  0  0  0
    7.4887    2.5475    0.2263 C   0  0  0  0  0  0  0  0  0  0  0  0
    6.7480    2.8147   -1.1490 C   0  0  0  0  0  0  0  0  0  0  0  0
    6.2607    4.2374   -1.4497 C   0  0  0  0  0  0  0  0  0  0  0  0
    5.6882    4.3544   -2.8326 N   0  0  0  0  0  0  0  0  0  0  0  0
    5.3646    5.7490   -3.1575 C   0  0  0  0  0  0  0  0  0  0  0  0
    3.9897    5.9740   -2.5784 C   0  0  0  0  0  0  0  0  0  0  0  0
    3.2400    4.6816   -2.9217 C   0  0  3  0  0  0  0  0  0  0  0  0
    2.2193    4.8423   -4.1343 C   0  0  3  0  0  0  0  0  0  0  0  0
    1.0818    5.8031   -3.7393 C   0  0  0  0  0  0  0  0  0  0  0  0
    0.1818    5.1357   -2.6688 C   0  0  1  0  0  0  0  0  0  0  0  0
   -0.8598    6.1503   -2.2022 C   0  0  0  0  0  0  0  0  0  0  0  0
   -0.4662    3.9738   -3.1754 O   0  0  0  0  0  0  0  0  0  0  0  0
    0.4325    2.9973   -3.7129 C   0  0  2  0  0  0  0  0  0  0  0  0
    1.0691    2.0848   -2.6572 C   0  0  0  0  0  0  0  0  0  0  0  0
    1.4716    3.5955   -4.6907 C   0  0  0  0  0  0  0  0  0  0  0  0
    4.3937    3.6625   -3.0959 C   0  0  0  0  0  0  0  0  0  0  0  0
    7.5291    2.5412    2.7573 C   0  0  0  0  0  0  0  0  0  0  0  0
    7.0019    1.4772    3.4920 C   0  0  0  0  0  0  0  0  0  0  0  0
    7.3890    1.1626    4.7218 C   0  0  0  0  0  0  0  0  0  0  0  0
    8.3855    1.8206    5.3190 C   0  0  0  0  0  0  0  0  0  0  0  0
    8.5599    1.4565    6.5725 N   0  0  0  0  0  0  0  0  0  0  0  0
    9.5349    1.9082    7.3162 C   0  0  0  0  0  0  0  0  0  0  0  0
   10.5223    2.7509    6.7884 C   0  0  0  0  0  0  0  0  0  0  0  0
   11.7301    2.8343    7.7706 C   0  0  0  0  0  0  0  0  0  0  0  0
   11.8462    1.9386    8.8704 C   0  0  0  0  0  0  0  0  0  0  0  0
   12.9780    2.1243    9.5317 N   0  0  0  0  0  0  0  0  0  0  0  0
   13.6339    3.0893    8.9388 N   0  0  0  0  0  0  0  0  0  0  0  0
   14.9509    3.4614    9.4380 C   0  0  0  0  0  0  0  0  0  0  0  0
   12.9253    3.5691    7.8672 C   0  0  0  0  0  0  0  0  0  0  0  0
   10.3020    3.2553    5.4742 N   0  0  0  0  0  0  0  0  0  0  0  0
    9.1836    2.8090    4.7106 C   0  0  0  0  0  0  0  0  0  0  0  0
    8.7236    3.2149    3.3492 C   0  0  0  0  0  0  0  0  0  0  0  0
    4.5860    2.9499    2.7355 C   0  0  0  0  0  0  0  0  0  0  0  0
   -0.2581   -2.4351    0.3752 Cl  0  0  0  0  0  0  0  0  0  0  0  0
    1.0802    3.1958    5.4535 H   0  0  0  0  0  0  0  0  0  0  0  0
    1.2581    1.5627    4.7217 H   0  0  0  0  0  0  0  0  0  0  0  0
    0.6098    2.9421    3.7359 H   0  0  0  0  0  0  0  0  0  0  0  0
    1.6446    1.2562    2.3506 H   0  0  0  0  0  0  0  0  0  0  0  0
    2.2891   -1.0557   -1.2549 H   0  0  0  0  0  0  0  0  0  0  0  0
    3.9569   -1.1316   -0.5714 H   0  0  0  0  0  0  0  0  0  0  0  0
    3.4238    0.3004   -1.5753 H   0  0  0  0  0  0  0  0  0  0  0  0
    5.1748    0.9322    0.0504 H   0  0  0  0  0  0  0  0  0  0  0  0
    7.7663    1.4711    0.2022 H   0  0  0  0  0  0  0  0  0  0  0  0
    8.4309    3.1327    0.2290 H   0  0  0  0  0  0  0  0  0  0  0  0
    5.8963    2.1643   -1.3059 H   0  0  0  0  0  0  0  0  0  0  0  0
    7.4505    2.5205   -1.9581 H   0  0  0  0  0  0  0  0  0  0  0  0
    7.1621    4.8871   -1.3879 H   0  0  0  0  0  0  0  0  0  0  0  0
    5.5398    4.5519   -0.6702 H   0  0  0  0  0  0  0  0  0  0  0  0
    5.3106    5.8582   -4.2645 H   0  0  0  0  0  0  0  0  0  0  0  0
    6.1076    6.4801   -2.7715 H   0  0  0  0  0  0  0  0  0  0  0  0
    3.5236    6.9376   -2.8529 H   0  0  0  0  0  0  0  0  0  0  0  0
    4.1170    6.0051   -1.4749 H   0  0  0  0  0  0  0  0  0  0  0  0
    2.7159    4.4313   -1.9948 H   0  0  0  0  0  0  0  0  0  0  0  0
    2.7925    5.2688   -4.9880 H   0  0  0  0  0  0  0  0  0  0  0  0
    0.4568    6.0459   -4.6302 H   0  0  0  0  0  0  0  0  0  0  0  0
    1.4783    6.7667   -3.3754 H   0  0  0  0  0  0  0  0  0  0  0  0
    0.7279    4.8739   -1.7455 H   0  0  0  0  0  0  0  0  0  0  0  0
   -1.5038    6.4797   -3.0436 H   0  0  0  0  0  0  0  0  0  0  0  0
   -0.3406    7.0396   -1.7781 H   0  0  0  0  0  0  0  0  0  0  0  0
   -1.4904    5.7104   -1.4019 H   0  0  0  0  0  0  0  0  0  0  0  0
   -0.1988    2.3057   -4.3175 H   0  0  0  0  0  0  0  0  0  0  0  0
    1.7807    2.5931   -2.0010 H   0  0  0  0  0  0  0  0  0  0  0  0
    1.6223    1.2722   -3.1799 H   0  0  0  0  0  0  0  0  0  0  0  0
    0.2946    1.6235   -2.0148 H   0  0  0  0  0  0  0  0  0  0  0  0
    0.8765    3.9461   -5.5713 H   0  0  0  0  0  0  0  0  0  0  0  0
    2.1521    2.8147   -5.0883 H   0  0  0  0  0  0  0  0  0  0  0  0
    4.4123    3.3290   -4.1561 H   0  0  0  0  0  0  0  0  0  0  0  0
    4.2194    2.7520   -2.4894 H   0  0  0  0  0  0  0  0  0  0  0  0
    6.2072    0.8554    3.1290 H   0  0  0  0  0  0  0  0  0  0  0  0
    6.8716    0.3695    5.2383 H   0  0  0  0  0  0  0  0  0  0  0  0
    9.5069    1.5365    8.3071 H   0  0  0  0  0  0  0  0  0  0  0  0
   11.2066    1.1405    9.2009 H   0  0  0  0  0  0  0  0  0  0  0  0
   15.2206    2.8106   10.3088 H   0  0  0  0  0  0  0  0  0  0  0  0
   14.9570    4.5059    9.7877 H   0  0  0  0  0  0  0  0  0  0  0  0
   15.7083    3.2895    8.6508 H   0  0  0  0  0  0  0  0  0  0  0  0
   13.2792    4.3595    7.2232 H   0  0  0  0  0  0  0  0  0  0  0  0
    9.2294    4.0182    2.8101 H   0  0  0  0  0  0  0  0  0  0  0  0
    5.0603    3.6393    3.4225 H   0  0  0  0  0  0  0  0  0  0  0  0
    1.1106   -2.3364    0.4525 H   0  0  0  0  0  0  0  0  0  0  0  0
  1  2  1  0  0  0  0
  1 45  1  0  0  0  0
  1 46  1  0  0  0  0
  1 47  1  0  0  0  0
  2  3  1  0  0  0  0
  3  4  1  0  0  0  0
  3 43  2  0  0  0  0
  4  5  2  0  0  0  0
  4 48  1  0  0  0  0
  5  6  1  0  0  0  0
  5  8  1  0  0  0  0
  6  7  1  0  0  0  0
  7 49  1  0  0  0  0
  7 50  1  0  0  0  0
  7 51  1  0  0  0  0
  8  9  2  0  0  0  0
  8 52  1  0  0  0  0
  9 10  1  0  0  0  0
  9 43  1  0  0  0  0
 10 11  1  0  0  0  0
 10 27  1  0  0  0  0
 11 12  1  0  0  0  0
 11 53  1  0  0  0  0
 11 54  1  0  0  0  0
 12 13  1  0  0  0  0
 12 55  1  0  0  0  0
 12 56  1  0  0  0  0
 13 14  1  0  0  0  0
 13 57  1  0  0  0  0
 13 58  1  0  0  0  0
 14 15  1  0  0  0  0
 14 26  1  0  0  0  0
 15 16  1  0  0  0  0
 15 59  1  0  0  0  0
 15 60  1  0  0  0  0
 16 17  1  0  0  0  0
 16 61  1  0  0  0  0
 16 62  1  0  0  0  0
 17 18  1  0  0  0  0
 17 26  1  0  0  0  0
 17 63  1  0  0  0  0
 18 19  1  0  0  0  0
 18 25  1  0  0  0  0
 18 64  1  0  0  0  0
 19 20  1  0  0  0  0
 19 65  1  0  0  0  0
 19 66  1  0  0  0  0
 20 21  1  0  0  0  0
 20 22  1  0  0  0  0
 20 67  1  1  0  0  0
 21 68  1  0  0  0  0
 21 69  1  0  0  0  0
 21 70  1  0  0  0  0
 22 23  1  0  0  0  0
 23 25  1  0  0  0  0
 23 24  1  0  0  0  0
 23 71  1  6  0  0  0
 24 72  1  0  0  0  0
 24 73  1  0  0  0  0
 24 74  1  0  0  0  0
 25 75  1  0  0  0  0
 25 76  1  0  0  0  0
 26 77  1  0  0  0  0
 26 78  1  0  0  0  0
 27 28  1  0  0  0  0
 27 42  2  0  0  0  0
 28 29  2  0  0  0  0
 28 79  1  0  0  0  0
 29 30  1  0  0  0  0
 29 80  1  0  0  0  0
 30 31  1  0  0  0  0
 30 41  2  0  0  0  0
 31 32  2  0  0  0  0
 32 33  1  0  0  0  0
 32 81  1  0  0  0  0
 33 34  1  0  0  0  0
 33 40  2  0  0  0  0
 34 35  1  0  0  0  0
 34 39  2  0  0  0  0
 35 36  2  0  0  0  0
 35 82  1  0  0  0  0
 36 37  1  0  0  0  0
 37 38  1  0  0  0  0
 37 39  1  0  0  0  0
 38 83  1  0  0  0  0
 38 84  1  0  0  0  0
 38 85  1  0  0  0  0
 39 86  1  0  0  0  0
 40 41  1  0  0  0  0
 41 42  1  0  0  0  0
 42 87  1  0  0  0  0
 43 88  1  0  0  0  0
 44 89  1  0  0  0  0
M  END
$$$$
