CHEMBL3633689
 OpenBabel04072215373D

 55 58  0  0  0  0  0  0  0  0999 V2000
    0.8404   -0.2653    2.7992 C   0  0  0  0  0  0  0  0  0  0  0  0
    2.2422   -0.1401    2.4899 N   0  0  0  0  0  0  0  0  0  0  0  0
    3.1628   -1.0600    2.9257 C   0  0  0  0  0  0  0  0  0  0  0  0
    2.8591   -2.0568    3.5941 O   0  0  0  0  0  0  0  0  0  0  0  0
    4.5708   -0.8824    2.5213 C   0  0  0  0  0  0  0  0  0  0  0  0
    5.4150   -2.0083    2.3741 C   0  0  0  0  0  0  0  0  0  0  0  0
    6.7330   -1.8518    1.9485 C   0  0  0  0  0  0  0  0  0  0  0  0
    7.4685   -3.0080    1.7363 O   0  0  0  0  0  0  0  0  0  0  0  0
    8.8343   -3.0042    1.9413 C   0  0  0  0  0  0  0  0  0  0  0  0
    9.4440   -2.1905    2.8799 C   0  0  0  0  0  0  0  0  0  0  0  0
   10.8312   -2.1716    3.0051 C   0  0  0  0  0  0  0  0  0  0  0  0
   11.6747   -3.0009    2.2479 C   0  0  0  0  0  0  0  0  0  0  0  0
   13.0946   -2.9311    2.3332 N   0  0  0  0  0  0  0  0  0  0  0  0
   13.7853   -2.0474    3.1521 C   0  0  0  0  0  0  0  0  0  0  0  0
   13.2574   -1.2216    3.8927 O   0  0  0  0  0  0  0  0  0  0  0  0
   15.1671   -2.1396    3.0911 N   0  0  0  0  0  0  0  0  0  0  0  0
   15.9563   -1.2150    3.8638 C   0  0  0  0  0  0  0  0  0  0  0  0
   15.7934   -1.2353    5.2564 C   0  0  0  0  0  0  0  0  0  0  0  0
   16.5990   -0.4721    6.1214 C   0  0  0  0  0  0  0  0  0  0  0  0
   16.4122   -0.5726    7.6119 C   0  0  0  0  0  0  0  0  0  0  0  0
   15.4358   -1.4477    7.9766 F   0  0  0  0  0  0  0  0  0  0  0  0
   17.5436   -0.9980    8.2419 F   0  0  0  0  0  0  0  0  0  0  0  0
   16.0872    0.6166    8.1913 F   0  0  0  0  0  0  0  0  0  0  0  0
   17.5933    0.3463    5.5744 C   0  0  0  0  0  0  0  0  0  0  0  0
   17.7492    0.4163    4.1945 C   0  0  0  0  0  0  0  0  0  0  0  0
   16.9111   -0.3284    3.3287 C   0  0  0  0  0  0  0  0  0  0  0  0
   16.9799   -0.0391    1.9432 N   0  0  0  0  0  0  0  0  0  0  0  0
   17.7222    0.9452    1.3227 C   0  0  0  0  0  0  0  0  0  0  0  0
   17.3874    0.8552   -0.0004 C   0  0  0  0  0  0  0  0  0  0  0  0
   16.4888   -0.1494   -0.1733 N   0  0  0  0  0  0  0  0  0  0  0  0
   16.2508   -0.6989    1.0110 N   0  0  0  0  0  0  0  0  0  0  0  0
   11.0393   -3.9107    1.3842 C   0  0  0  0  0  0  0  0  0  0  0  0
    9.6312   -3.9060    1.2244 C   0  0  0  0  0  0  0  0  0  0  0  0
    7.2052   -0.5657    1.6888 C   0  0  0  0  0  0  0  0  0  0  0  0
    6.3706    0.5355    1.8843 C   0  0  0  0  0  0  0  0  0  0  0  0
    5.0428    0.3985    2.2660 N   0  3  0  0  0  0  0  0  0  0  0  0
    4.3219    1.4487    2.3488 O   0  5  0  0  0  0  0  0  0  0  0  0
    0.2960    0.5591    2.3319 H   0  0  0  0  0  0  0  0  0  0  0  0
    0.7034   -0.2413    3.8827 H   0  0  0  0  0  0  0  0  0  0  0  0
    0.4689   -1.2190    2.4101 H   0  0  0  0  0  0  0  0  0  0  0  0
    2.6180    0.7732    2.2151 H   0  0  0  0  0  0  0  0  0  0  0  0
    5.0186   -3.0012    2.5779 H   0  0  0  0  0  0  0  0  0  0  0  0
    8.8768   -1.5145    3.5096 H   0  0  0  0  0  0  0  0  0  0  0  0
   11.2092   -1.4634    3.7282 H   0  0  0  0  0  0  0  0  0  0  0  0
   13.6296   -3.5327    1.7185 H   0  0  0  0  0  0  0  0  0  0  0  0
   15.5555   -2.4152    2.1980 H   0  0  0  0  0  0  0  0  0  0  0  0
   15.0318   -1.8842    5.6882 H   0  0  0  0  0  0  0  0  0  0  0  0
   18.2389    0.9421    6.2161 H   0  0  0  0  0  0  0  0  0  0  0  0
   18.5347    1.0610    3.8203 H   0  0  0  0  0  0  0  0  0  0  0  0
   18.3891    1.6103    1.8464 H   0  0  0  0  0  0  0  0  0  0  0  0
   17.7560    1.4506   -0.8231 H   0  0  0  0  0  0  0  0  0  0  0  0
   11.6237   -4.6361    0.8162 H   0  0  0  0  0  0  0  0  0  0  0  0
    9.1668   -4.6057    0.5354 H   0  0  0  0  0  0  0  0  0  0  0  0
    8.2207   -0.3877    1.3455 H   0  0  0  0  0  0  0  0  0  0  0  0
    6.6719    1.5628    1.7374 H   0  0  0  0  0  0  0  0  0  0  0  0
  1  2  1  0  0  0  0
  1 38  1  0  0  0  0
  1 39  1  0  0  0  0
  1 40  1  0  0  0  0
  2  3  1  0  0  0  0
  2 41  1  0  0  0  0
  3  4  2  0  0  0  0
  3  5  1  0  0  0  0
  5  6  1  0  0  0  0
  5 36  2  0  0  0  0
  6  7  2  0  0  0  0
  6 42  1  0  0  0  0
  7  8  1  0  0  0  0
  7 34  1  0  0  0  0
  8  9  1  0  0  0  0
  9 10  1  0  0  0  0
  9 33  2  0  0  0  0
 10 11  2  0  0  0  0
 10 43  1  0  0  0  0
 11 12  1  0  0  0  0
 11 44  1  0  0  0  0
 12 13  1  0  0  0  0
 12 32  2  0  0  0  0
 13 14  1  0  0  0  0
 13 45  1  0  0  0  0
 14 15  2  0  0  0  0
 14 16  1  0  0  0  0
 16 17  1  0  0  0  0
 16 46  1  0  0  0  0
 17 18  1  0  0  0  0
 17 26  2  0  0  0  0
 18 19  2  0  0  0  0
 18 47  1  0  0  0  0
 19 20  1  0  0  0  0
 19 24  1  0  0  0  0
 20 21  1  0  0  0  0
 20 22  1  0  0  0  0
 20 23  1  0  0  0  0
 24 25  2  0  0  0  0
 24 48  1  0  0  0  0
 25 26  1  0  0  0  0
 25 49  1  0  0  0  0
 26 27  1  0  0  0  0
 27 28  1  0  0  0  0
 27 31  1  0  0  0  0
 28 29  2  0  0  0  0
 28 50  1  0  0  0  0
 29 30  1  0  0  0  0
 29 51  1  0  0  0  0
 30 31  2  0  0  0  0
 32 33  1  0  0  0  0
 32 52  1  0  0  0  0
 33 53  1  0  0  0  0
 34 35  2  0  0  0  0
 34 54  1  0  0  0  0
 35 36  1  0  0  0  0
 35 55  1  0  0  0  0
 36 37  1  0  0  0  0
M  CHG  2  36   1  37  -1
M  END
$$$$
