CHEMBL3808653
 OpenBabel04072215373D

 52 56  0  0  0  0  0  0  0  0999 V2000
   -0.2196   -1.2012   -3.6989 C   0  0  0  0  0  0  0  0  0  0  0  0
    0.2084   -0.3472   -2.4918 C   0  0  0  0  0  0  0  0  0  0  0  0
   -0.9231    0.6285   -2.1305 C   0  0  0  0  0  0  0  0  0  0  0  0
    0.4513   -1.2960   -1.2992 C   0  0  0  0  0  0  0  0  0  0  0  0
    1.4502    0.4348   -2.8265 C   0  0  0  0  0  0  0  0  0  0  0  0
    1.9876    0.9688   -3.9792 C   0  0  0  0  0  0  0  0  0  0  0  0
    3.2141    1.5527   -3.5757 C   0  0  0  0  0  0  0  0  0  0  0  0
    4.1188    2.1645   -4.4290 N   0  0  0  0  0  0  0  0  0  0  0  0
    5.3208    2.6664   -3.9789 C   0  0  0  0  0  0  0  0  0  0  0  0
    5.7845    2.6957   -2.8481 O   0  0  0  0  0  0  0  0  0  0  0  0
    6.0594    3.2620   -5.0186 N   0  0  0  0  0  0  0  0  0  0  0  0
    6.1946    2.8139   -6.3354 C   0  0  0  0  0  0  0  0  0  0  0  0
    7.0703    3.6468   -6.9944 C   0  0  0  0  0  0  0  0  0  0  0  0
    7.4526    4.6708   -6.0986 C   0  0  0  0  0  0  0  0  0  0  0  0
    8.2569    5.7422   -6.3090 N   0  0  0  0  0  0  0  0  0  0  0  0
    8.4172    6.5544   -5.2346 C   0  0  0  0  0  0  0  0  0  0  0  0
    9.1824    7.6773   -5.4709 O   0  0  0  0  0  0  0  0  0  0  0  0
   10.0962    8.0597   -4.4984 C   0  0  0  0  0  0  0  0  0  0  0  0
   10.4424    7.2301   -3.4893 N   0  0  0  0  0  0  0  0  0  0  0  0
   11.4756    7.6167   -2.7132 C   0  0  0  0  0  0  0  0  0  0  0  0
   12.2331    8.7104   -2.8870 N   0  0  0  0  0  0  0  0  0  0  0  0
   11.8427    9.4740   -3.9135 C   0  0  0  0  0  0  0  0  0  0  0  0
   10.7485    9.2315   -4.7102 C   0  0  0  0  0  0  0  0  0  0  0  0
   10.6915   10.2275   -5.8005 C   0  0  0  0  0  0  0  0  0  0  0  0
   12.1234   10.5603   -6.0072 N   0  0  0  0  0  0  0  0  0  0  0  0
   12.6824   10.5142   -4.6154 C   0  0  0  0  0  0  0  0  0  0  0  0
    7.7769    6.3896   -4.0121 C   0  0  0  0  0  0  0  0  0  0  0  0
    6.9705    5.2846   -3.8000 C   0  0  0  0  0  0  0  0  0  0  0  0
    6.8254    4.4135   -4.8811 C   0  0  0  0  0  0  0  0  0  0  0  0
    3.3753    1.4168   -2.2575 N   0  0  0  0  0  0  0  0  0  0  0  0
    2.2789    0.7348   -1.7903 O   0  0  0  0  0  0  0  0  0  0  0  0
   -1.1075   -1.8000   -3.4664 H   0  0  0  0  0  0  0  0  0  0  0  0
    0.5786   -1.8907   -3.9996 H   0  0  0  0  0  0  0  0  0  0  0  0
   -0.4612   -0.5780   -4.5672 H   0  0  0  0  0  0  0  0  0  0  0  0
   -1.8425    0.0903   -1.8725 H   0  0  0  0  0  0  0  0  0  0  0  0
   -1.1523    1.3036   -2.9639 H   0  0  0  0  0  0  0  0  0  0  0  0
   -0.6503    1.2520   -1.2718 H   0  0  0  0  0  0  0  0  0  0  0  0
   -0.4464   -1.8833   -1.0727 H   0  0  0  0  0  0  0  0  0  0  0  0
    0.7164   -0.7461   -0.3882 H   0  0  0  0  0  0  0  0  0  0  0  0
    1.2659   -2.0003   -1.5072 H   0  0  0  0  0  0  0  0  0  0  0  0
    1.5676    0.9114   -4.9714 H   0  0  0  0  0  0  0  0  0  0  0  0
    3.8173    2.3162   -5.3814 H   0  0  0  0  0  0  0  0  0  0  0  0
    5.7317    1.8918   -6.6482 H   0  0  0  0  0  0  0  0  0  0  0  0
    7.4198    3.5349   -8.0099 H   0  0  0  0  0  0  0  0  0  0  0  0
   11.7371    6.9626   -1.8879 H   0  0  0  0  0  0  0  0  0  0  0  0
   10.1652   11.1320   -5.4669 H   0  0  0  0  0  0  0  0  0  0  0  0
   10.2144    9.8627   -6.7133 H   0  0  0  0  0  0  0  0  0  0  0  0
   12.5202    9.7473   -6.4926 H   0  0  0  0  0  0  0  0  0  0  0  0
   12.5697   11.4951   -4.1455 H   0  0  0  0  0  0  0  0  0  0  0  0
   13.7345   10.2181   -4.6355 H   0  0  0  0  0  0  0  0  0  0  0  0
    7.9258    7.0957   -3.2034 H   0  0  0  0  0  0  0  0  0  0  0  0
    6.4864    5.1164   -2.8416 H   0  0  0  0  0  0  0  0  0  0  0  0
  1  2  1  0  0  0  0
  1 32  1  0  0  0  0
  1 33  1  0  0  0  0
  1 34  1  0  0  0  0
  2  3  1  0  0  0  0
  2  4  1  0  0  0  0
  2  5  1  0  0  0  0
  3 35  1  0  0  0  0
  3 36  1  0  0  0  0
  3 37  1  0  0  0  0
  4 38  1  0  0  0  0
  4 39  1  0  0  0  0
  4 40  1  0  0  0  0
  5  6  2  0  0  0  0
  5 31  1  0  0  0  0
  6  7  1  0  0  0  0
  6 41  1  0  0  0  0
  7  8  1  0  0  0  0
  7 30  2  0  0  0  0
  8  9  1  0  0  0  0
  8 42  1  0  0  0  0
  9 10  2  0  0  0  0
  9 11  1  0  0  0  0
 11 12  1  0  0  0  0
 11 29  1  0  0  0  0
 12 13  2  0  0  0  0
 12 43  1  0  0  0  0
 13 14  1  0  0  0  0
 13 44  1  0  0  0  0
 14 15  1  0  0  0  0
 14 29  2  0  0  0  0
 15 16  2  0  0  0  0
 16 17  1  0  0  0  0
 16 27  1  0  0  0  0
 17 18  1  0  0  0  0
 18 19  1  0  0  0  0
 18 23  2  0  0  0  0
 19 20  2  0  0  0  0
 20 21  1  0  0  0  0
 20 45  1  0  0  0  0
 21 22  2  0  0  0  0
 22 23  1  0  0  0  0
 22 26  1  0  0  0  0
 23 24  1  0  0  0  0
 24 25  1  0  0  0  0
 24 46  1  0  0  0  0
 24 47  1  0  0  0  0
 25 26  1  0  0  0  0
 25 48  1  0  0  0  0
 26 49  1  0  0  0  0
 26 50  1  0  0  0  0
 27 28  2  0  0  0  0
 27 51  1  0  0  0  0
 28 29  1  0  0  0  0
 28 52  1  0  0  0  0
 30 31  1  0  0  0  0
M  END
$$$$
