CHEMBL202011
 OpenBabel04072215363D

 45 48  0  0  0  0  0  0  0  0999 V2000
    1.7833    0.5626   -1.0133 O   0  0  0  0  0  0  0  0  0  0  0  0
    2.2542    0.0090   -0.0241 C   0  0  0  0  0  0  0  0  0  0  0  0
    2.0368    0.3897    1.2874 N   0  0  0  0  0  0  0  0  0  0  0  0
    1.2635    1.5043    1.6967 C   0  0  0  0  0  0  0  0  0  0  0  0
    0.5270    2.3185    0.8397 C   0  0  0  0  0  0  0  0  0  0  0  0
   -0.1850    3.4067    1.2273 N   0  0  0  0  0  0  0  0  0  0  0  0
   -0.1736    3.7347    2.5249 C   0  0  0  0  0  0  0  0  0  0  0  0
   -0.8633    4.8649    2.9395 C   0  0  0  0  0  0  0  0  0  0  0  0
   -0.8668    5.2714    4.2745 C   0  0  0  0  0  0  0  0  0  0  0  0
   -0.1775    4.5242    5.2242 C   0  0  0  0  0  0  0  0  0  0  0  0
    0.5128    3.3765    4.8342 C   0  0  0  0  0  0  0  0  0  0  0  0
    0.5257    2.9753    3.4853 C   0  0  0  0  0  0  0  0  0  0  0  0
    1.2381    1.8409    3.0481 C   0  0  0  0  0  0  0  0  0  0  0  0
    3.1275   -1.1777   -0.2512 C   0  0  0  0  0  0  0  0  0  0  0  0
    2.7732   -1.9553   -1.3755 C   0  0  0  0  0  0  0  0  0  0  0  0
    3.5204   -3.0658   -1.7475 C   0  0  0  0  0  0  0  0  0  0  0  0
    4.6193   -3.4236   -0.9854 C   0  0  0  0  0  0  0  0  0  0  0  0
    4.9747   -2.6638    0.1354 C   0  0  0  0  0  0  0  0  0  0  0  0
    4.2798   -1.4930    0.5084 C   0  0  0  0  0  0  0  0  0  0  0  0
    4.6587   -0.7468    1.6558 N   0  0  0  0  0  0  0  0  0  0  0  0
    6.0722   -0.8137    2.0458 C   0  0  0  0  0  0  0  0  0  0  0  0
    6.3232   -0.0176    3.3006 C   0  0  0  0  0  0  0  0  0  0  0  0
    6.4234   -0.6625    4.5391 C   0  0  0  0  0  0  0  0  0  0  0  0
    6.7163    0.0927    5.6629 C   0  0  0  0  0  0  0  0  0  0  0  0
    6.9005    1.4287    5.6386 N   0  0  0  0  0  0  0  0  0  0  0  0
    6.7881    2.0357    4.4378 C   0  0  0  0  0  0  0  0  0  0  0  0
    6.5027    1.3673    3.2567 C   0  0  0  0  0  0  0  0  0  0  0  0
    2.4659   -0.1812    2.0113 H   0  0  0  0  0  0  0  0  0  0  0  0
    0.4593    2.1382   -0.2285 H   0  0  0  0  0  0  0  0  0  0  0  0
   -1.4036    5.4496    2.1981 H   0  0  0  0  0  0  0  0  0  0  0  0
   -1.4047    6.1691    4.5652 H   0  0  0  0  0  0  0  0  0  0  0  0
   -0.1725    4.8381    6.2648 H   0  0  0  0  0  0  0  0  0  0  0  0
    1.0508    2.8039    5.5858 H   0  0  0  0  0  0  0  0  0  0  0  0
    1.7859    1.2441    3.7711 H   0  0  0  0  0  0  0  0  0  0  0  0
    1.9042   -1.6831   -1.9741 H   0  0  0  0  0  0  0  0  0  0  0  0
    3.2407   -3.6461   -2.6225 H   0  0  0  0  0  0  0  0  0  0  0  0
    5.2087   -4.2960   -1.2573 H   0  0  0  0  0  0  0  0  0  0  0  0
    5.8329   -3.0215    0.6948 H   0  0  0  0  0  0  0  0  0  0  0  0
    4.3821    0.2304    1.5459 H   0  0  0  0  0  0  0  0  0  0  0  0
    6.7071   -0.4263    1.2386 H   0  0  0  0  0  0  0  0  0  0  0  0
    6.3885   -1.8419    2.2494 H   0  0  0  0  0  0  0  0  0  0  0  0
    6.2962   -1.7367    4.6295 H   0  0  0  0  0  0  0  0  0  0  0  0
    6.8212   -0.3728    6.6389 H   0  0  0  0  0  0  0  0  0  0  0  0
    6.9477    3.1103    4.4481 H   0  0  0  0  0  0  0  0  0  0  0  0
    6.4447    1.9179    2.3237 H   0  0  0  0  0  0  0  0  0  0  0  0
  1  2  2  0  0  0  0
  2  3  1  0  0  0  0
  2 14  1  0  0  0  0
  3  4  1  0  0  0  0
  3 28  1  0  0  0  0
  4  5  1  0  0  0  0
  4 13  2  0  0  0  0
  5  6  2  0  0  0  0
  5 29  1  0  0  0  0
  6  7  1  0  0  0  0
  7  8  1  0  0  0  0
  7 12  2  0  0  0  0
  8  9  2  0  0  0  0
  8 30  1  0  0  0  0
  9 10  1  0  0  0  0
  9 31  1  0  0  0  0
 10 11  2  0  0  0  0
 10 32  1  0  0  0  0
 11 12  1  0  0  0  0
 11 33  1  0  0  0  0
 12 13  1  0  0  0  0
 13 34  1  0  0  0  0
 14 15  1  0  0  0  0
 14 19  2  0  0  0  0
 15 16  2  0  0  0  0
 15 35  1  0  0  0  0
 16 17  1  0  0  0  0
 16 36  1  0  0  0  0
 17 18  2  0  0  0  0
 17 37  1  0  0  0  0
 18 19  1  0  0  0  0
 18 38  1  0  0  0  0
 19 20  1  0  0  0  0
 20 21  1  0  0  0  0
 20 39  1  0  0  0  0
 21 22  1  0  0  0  0
 21 40  1  0  0  0  0
 21 41  1  0  0  0  0
 22 23  1  0  0  0  0
 22 27  2  0  0  0  0
 23 24  2  0  0  0  0
 23 42  1  0  0  0  0
 24 25  1  0  0  0  0
 24 43  1  0  0  0  0
 25 26  2  0  0  0  0
 26 27  1  0  0  0  0
 26 44  1  0  0  0  0
 27 45  1  0  0  0  0
M  END
$$$$
