CHEMBL3690421
 OpenBabel04072215373D

 48 51  0  0  0  0  0  0  0  0999 V2000
   -2.5420   -0.0428    0.3524 C   0  0  0  0  0  0  0  0  0  0  0  0
   -1.0580   -0.0176    0.2444 C   0  0  0  0  0  0  0  0  0  0  0  0
   -0.2536    0.6059    1.1709 C   0  0  0  0  0  0  0  0  0  0  0  0
    1.0894    0.6242    1.0993 N   0  0  0  0  0  0  0  0  0  0  0  0
    1.6508   -0.0138    0.0542 C   0  0  0  0  0  0  0  0  0  0  0  0
    3.1362   -0.0574   -0.0303 C   0  0  0  0  0  0  0  0  0  0  0  0
    3.8505   -0.6932   -1.1523 C   0  0  0  0  0  0  0  0  0  0  0  0
    5.1938   -0.7542   -1.1614 C   0  0  0  0  0  0  0  0  0  0  0  0
    5.9165   -0.2241   -0.0915 N   0  0  0  0  0  0  0  0  0  0  0  0
    7.2819   -0.1925    0.1748 C   0  0  0  0  0  0  0  0  0  0  0  0
    8.3883   -0.7376   -0.6287 C   0  0  0  0  0  0  0  0  0  0  0  0
    9.5972   -0.0272   -0.6449 C   0  0  0  0  0  0  0  0  0  0  0  0
   10.6992   -0.5024   -1.3449 C   0  0  0  0  0  0  0  0  0  0  0  0
   10.6160   -1.7051   -2.0384 C   0  0  0  0  0  0  0  0  0  0  0  0
    9.4450   -2.4671   -2.0176 C   0  0  0  0  0  0  0  0  0  0  0  0
    9.3462   -3.7204   -2.6783 N   0  0  0  0  0  0  0  0  0  0  0  0
   10.3804   -4.3959   -3.2929 C   0  0  0  0  0  0  0  0  0  0  0  0
   11.5569   -4.0593   -3.3436 O   0  0  0  0  0  0  0  0  0  0  0  0
    9.9664   -5.5416   -3.9338 N   0  0  0  0  0  0  0  0  0  0  0  0
   10.9961   -6.3641   -4.5878 C   0  0  0  0  0  0  0  0  0  0  0  0
   11.8861   -7.2052   -3.6569 C   0  0  0  0  0  0  0  0  0  0  0  0
   11.4362   -7.2049   -2.3810 F   0  0  0  0  0  0  0  0  0  0  0  0
   11.8842   -8.4989   -4.0695 F   0  0  0  0  0  0  0  0  0  0  0  0
   13.1697   -6.7905   -3.6543 F   0  0  0  0  0  0  0  0  0  0  0  0
    8.3314   -1.9715   -1.3132 C   0  0  0  0  0  0  0  0  0  0  0  0
    7.3670    0.5312    1.3594 C   0  0  0  0  0  0  0  0  0  0  0  0
    6.1463    0.9049    1.8371 N   0  0  0  0  0  0  0  0  0  0  0  0
    5.2862    0.4315    0.9666 C   0  0  0  0  0  0  0  0  0  0  0  0
    3.8656    0.4964    0.9673 C   0  0  0  0  0  0  0  0  0  0  0  0
    0.9559   -0.6461   -0.9118 N   0  0  0  0  0  0  0  0  0  0  0  0
   -0.3832   -0.6325   -0.7914 C   0  0  0  0  0  0  0  0  0  0  0  0
   -2.8879    0.5036    1.2363 H   0  0  0  0  0  0  0  0  0  0  0  0
   -2.8982   -1.0746    0.4368 H   0  0  0  0  0  0  0  0  0  0  0  0
   -2.9944    0.4225   -0.5283 H   0  0  0  0  0  0  0  0  0  0  0  0
   -0.6698    1.1269    2.0292 H   0  0  0  0  0  0  0  0  0  0  0  0
    3.2639   -1.1028   -1.9701 H   0  0  0  0  0  0  0  0  0  0  0  0
    5.7413   -1.1948   -1.9815 H   0  0  0  0  0  0  0  0  0  0  0  0
    9.7001    0.9132   -0.1073 H   0  0  0  0  0  0  0  0  0  0  0  0
   11.6304    0.0588   -1.3472 H   0  0  0  0  0  0  0  0  0  0  0  0
   11.5026   -2.0186   -2.5771 H   0  0  0  0  0  0  0  0  0  0  0  0
    8.4447   -4.1718   -2.6660 H   0  0  0  0  0  0  0  0  0  0  0  0
    9.1641   -6.0218   -3.5554 H   0  0  0  0  0  0  0  0  0  0  0  0
   11.6371   -5.7020   -5.1829 H   0  0  0  0  0  0  0  0  0  0  0  0
   10.4710   -7.0183   -5.2898 H   0  0  0  0  0  0  0  0  0  0  0  0
    7.4238   -2.5673   -1.2687 H   0  0  0  0  0  0  0  0  0  0  0  0
    8.2673    0.7977    1.8994 H   0  0  0  0  0  0  0  0  0  0  0  0
    3.4044    0.9933    1.8150 H   0  0  0  0  0  0  0  0  0  0  0  0
   -0.9187   -1.1564   -1.5783 H   0  0  0  0  0  0  0  0  0  0  0  0
  1  2  1  0  0  0  0
  1 32  1  0  0  0  0
  1 33  1  0  0  0  0
  1 34  1  0  0  0  0
  2  3  1  0  0  0  0
  2 31  2  0  0  0  0
  3  4  2  0  0  0  0
  3 35  1  0  0  0  0
  4  5  1  0  0  0  0
  5  6  1  0  0  0  0
  5 30  2  0  0  0  0
  6  7  1  0  0  0  0
  6 29  2  0  0  0  0
  7  8  2  0  0  0  0
  7 36  1  0  0  0  0
  8  9  1  0  0  0  0
  8 37  1  0  0  0  0
  9 10  1  0  0  0  0
  9 28  1  0  0  0  0
 10 11  1  0  0  0  0
 10 26  2  0  0  0  0
 11 12  1  0  0  0  0
 11 25  2  0  0  0  0
 12 13  2  0  0  0  0
 12 38  1  0  0  0  0
 13 14  1  0  0  0  0
 13 39  1  0  0  0  0
 14 15  2  0  0  0  0
 14 40  1  0  0  0  0
 15 16  1  0  0  0  0
 15 25  1  0  0  0  0
 16 17  1  0  0  0  0
 16 41  1  0  0  0  0
 17 18  2  0  0  0  0
 17 19  1  0  0  0  0
 19 20  1  0  0  0  0
 19 42  1  0  0  0  0
 20 21  1  0  0  0  0
 20 43  1  0  0  0  0
 20 44  1  0  0  0  0
 21 22  1  0  0  0  0
 21 23  1  0  0  0  0
 21 24  1  0  0  0  0
 25 45  1  0  0  0  0
 26 27  1  0  0  0  0
 26 46  1  0  0  0  0
 27 28  2  0  0  0  0
 28 29  1  0  0  0  0
 29 47  1  0  0  0  0
 30 31  1  0  0  0  0
 31 48  1  0  0  0  0
M  END
$$$$
