CHEMBL2386994
 OpenBabel04072215363D

 57 61  0  0  0  0  0  0  0  0999 V2000
    1.2524   -0.2527    1.5608 N   0  0  0  0  0  0  0  0  0  0  0  0
    2.5900   -0.2354    1.1984 C   0  0  0  0  0  0  0  0  0  0  0  0
    3.3201    0.8362    1.5666 N   0  0  0  0  0  0  0  0  0  0  0  0
    4.6359    0.8396    1.2840 C   0  0  0  0  0  0  0  0  0  0  0  0
    5.3547   -0.1106    0.6645 N   0  0  0  0  0  0  0  0  0  0  0  0
    4.5886   -1.1513    0.2951 C   0  0  0  0  0  0  0  0  0  0  0  0
    3.2197   -1.2802    0.5020 C   0  0  0  0  0  0  0  0  0  0  0  0
    2.8172   -2.5371   -0.0565 C   0  0  0  0  0  0  0  0  0  0  0  0
    1.4617   -3.0943   -0.0875 C   0  0  0  0  0  0  0  0  0  0  0  0
    0.4675   -2.3749   -0.1599 O   0  0  0  0  0  0  0  0  0  0  0  0
    1.2753   -4.5727   -0.0093 C   0  0  0  0  0  0  0  0  0  0  0  0
    2.1858   -5.3539    0.7130 C   0  0  0  0  0  0  0  0  0  0  0  0
    2.0224   -6.7277    0.7715 C   0  0  0  0  0  0  0  0  0  0  0  0
    0.9321   -7.3213    0.1403 C   0  0  0  0  0  0  0  0  0  0  0  0
   -0.0281   -6.5620   -0.5410 C   0  0  0  0  0  0  0  0  0  0  0  0
   -1.1657   -7.1466   -1.1599 N   0  0  0  0  0  0  0  0  0  0  0  0
   -1.5181   -8.4851   -1.0934 C   0  0  0  0  0  0  0  0  0  0  0  0
   -0.9177   -9.3460   -0.4588 O   0  0  0  0  0  0  0  0  0  0  0  0
   -2.6063   -8.7897   -1.9042 N   0  0  0  0  0  0  0  0  0  0  0  0
   -3.0221  -10.1538   -1.9613 C   0  0  0  0  0  0  0  0  0  0  0  0
   -3.2724  -10.9134   -0.8116 C   0  0  0  0  0  0  0  0  0  0  0  0
   -3.3091  -10.3331    0.3976 F   0  0  0  0  0  0  0  0  0  0  0  0
   -3.5067  -12.2859   -0.8921 C   0  0  0  0  0  0  0  0  0  0  0  0
   -3.5049  -12.9180   -2.1350 C   0  0  0  0  0  0  0  0  0  0  0  0
   -3.3103  -12.1640   -3.2938 C   0  0  0  0  0  0  0  0  0  0  0  0
   -3.0903  -10.7896   -3.2000 C   0  0  0  0  0  0  0  0  0  0  0  0
   -2.8617  -10.0874   -4.3208 F   0  0  0  0  0  0  0  0  0  0  0  0
    0.1553   -5.1722   -0.6160 C   0  0  0  0  0  0  0  0  0  0  0  0
    3.9653   -3.1145   -0.5825 C   0  0  0  0  0  0  0  0  0  0  0  0
    5.0347   -2.2848   -0.3388 N   0  0  0  0  0  0  0  0  0  0  0  0
    6.4170   -2.5574   -0.6882 C   0  0  0  0  0  0  0  0  0  0  0  0
    6.6474   -2.8028   -2.1806 C   0  0  0  0  0  0  0  0  0  0  0  0
    7.9633   -3.5730   -2.2611 C   0  0  0  0  0  0  0  0  0  0  0  0
    8.2480   -4.1038   -0.8570 C   0  0  0  0  0  0  0  0  0  0  0  0
    6.9978   -3.8136   -0.0354 C   0  0  0  0  0  0  0  0  0  0  0  0
    0.9060    0.6703    1.7854 H   0  0  0  0  0  0  0  0  0  0  0  0
    0.6582   -0.8346    0.9702 H   0  0  0  0  0  0  0  0  0  0  0  0
    5.1855    1.7207    1.6024 H   0  0  0  0  0  0  0  0  0  0  0  0
    3.0229   -4.9110    1.2441 H   0  0  0  0  0  0  0  0  0  0  0  0
    2.7312   -7.3466    1.3156 H   0  0  0  0  0  0  0  0  0  0  0  0
    0.8674   -8.4012    0.2226 H   0  0  0  0  0  0  0  0  0  0  0  0
   -1.8429   -6.5204   -1.5720 H   0  0  0  0  0  0  0  0  0  0  0  0
   -2.5852   -8.3191   -2.8005 H   0  0  0  0  0  0  0  0  0  0  0  0
   -3.6675  -12.8513    0.0209 H   0  0  0  0  0  0  0  0  0  0  0  0
   -3.6506  -13.9937   -2.1976 H   0  0  0  0  0  0  0  0  0  0  0  0
   -3.2972  -12.6447   -4.2673 H   0  0  0  0  0  0  0  0  0  0  0  0
   -0.5613   -4.5484   -1.1437 H   0  0  0  0  0  0  0  0  0  0  0  0
    4.1069   -4.0546   -1.1015 H   0  0  0  0  0  0  0  0  0  0  0  0
    7.0233   -1.6959   -0.3798 H   0  0  0  0  0  0  0  0  0  0  0  0
    6.6876   -1.8656   -2.7451 H   0  0  0  0  0  0  0  0  0  0  0  0
    5.8480   -3.4092   -2.6221 H   0  0  0  0  0  0  0  0  0  0  0  0
    8.7786   -2.9199   -2.5916 H   0  0  0  0  0  0  0  0  0  0  0  0
    7.8867   -4.3894   -2.9871 H   0  0  0  0  0  0  0  0  0  0  0  0
    9.1103   -3.5765   -0.4323 H   0  0  0  0  0  0  0  0  0  0  0  0
    8.4893   -5.1717   -0.8654 H   0  0  0  0  0  0  0  0  0  0  0  0
    7.2336   -3.6607    1.0231 H   0  0  0  0  0  0  0  0  0  0  0  0
    6.3079   -4.6632   -0.1004 H   0  0  0  0  0  0  0  0  0  0  0  0
  1  2  1  0  0  0  0
  1 36  1  0  0  0  0
  1 37  1  0  0  0  0
  2  3  1  0  0  0  0
  2  7  2  0  0  0  0
  3  4  2  0  0  0  0
  4  5  1  0  0  0  0
  4 38  1  0  0  0  0
  5  6  2  0  0  0  0
  6  7  1  0  0  0  0
  6 30  1  0  0  0  0
  7  8  1  0  0  0  0
  8  9  1  0  0  0  0
  8 29  2  0  0  0  0
  9 10  2  0  0  0  0
  9 11  1  0  0  0  0
 11 12  1  0  0  0  0
 11 28  2  0  0  0  0
 12 13  2  0  0  0  0
 12 39  1  0  0  0  0
 13 14  1  0  0  0  0
 13 40  1  0  0  0  0
 14 15  2  0  0  0  0
 14 41  1  0  0  0  0
 15 16  1  0  0  0  0
 15 28  1  0  0  0  0
 16 17  1  0  0  0  0
 16 42  1  0  0  0  0
 17 18  2  0  0  0  0
 17 19  1  0  0  0  0
 19 20  1  0  0  0  0
 19 43  1  0  0  0  0
 20 21  1  0  0  0  0
 20 26  2  0  0  0  0
 21 22  1  0  0  0  0
 21 23  2  0  0  0  0
 23 24  1  0  0  0  0
 23 44  1  0  0  0  0
 24 25  2  0  0  0  0
 24 45  1  0  0  0  0
 25 26  1  0  0  0  0
 25 46  1  0  0  0  0
 26 27  1  0  0  0  0
 28 47  1  0  0  0  0
 29 30  1  0  0  0  0
 29 48  1  0  0  0  0
 30 31  1  0  0  0  0
 31 32  1  0  0  0  0
 31 35  1  0  0  0  0
 31 49  1  0  0  0  0
 32 33  1  0  0  0  0
 32 50  1  0  0  0  0
 32 51  1  0  0  0  0
 33 34  1  0  0  0  0
 33 52  1  0  0  0  0
 33 53  1  0  0  0  0
 34 35  1  0  0  0  0
 34 54  1  0  0  0  0
 34 55  1  0  0  0  0
 35 56  1  0  0  0  0
 35 57  1  0  0  0  0
M  END
$$$$
