CHEMBL365178
 OpenBabel04072215373D

 52 54  0  0  0  0  0  0  0  0999 V2000
    6.6024   -0.3356    0.3568 C   0  0  0  0  0  0  0  0  0  0  0  0
    5.4026   -0.9444   -0.3488 C   0  0  0  0  0  0  0  0  0  0  0  0
    5.1780   -0.2005   -1.5504 O   0  0  0  0  0  0  0  0  0  0  0  0
    4.4539    0.9475   -1.3970 C   0  0  0  0  0  0  0  0  0  0  0  0
    3.7183    1.1687   -0.4437 O   0  0  0  0  0  0  0  0  0  0  0  0
    4.7545    1.9209   -2.4512 C   0  0  0  0  0  0  0  0  0  0  0  0
    5.6338    1.6710   -3.4832 C   0  0  0  0  0  0  0  0  0  0  0  0
    5.7268    2.7712   -4.2634 N   0  0  0  0  0  0  0  0  0  0  0  0
    6.4991    2.8305   -5.3564 N   0  0  0  0  0  0  0  0  0  0  0  0
    6.4914    3.9716   -5.9396 C   0  0  0  0  0  0  0  0  0  0  0  0
    5.8229    5.0899   -5.5287 N   0  0  0  0  0  0  0  0  0  0  0  0
    5.0398    5.0386   -4.4816 C   0  0  0  0  0  0  0  0  0  0  0  0
    4.3290    6.1700   -4.1407 N   0  0  0  0  0  0  0  0  0  0  0  0
    4.8074    7.4935   -4.3024 C   0  0  0  0  0  0  0  0  0  0  0  0
    3.9174    8.5501   -4.5227 C   0  0  0  0  0  0  0  0  0  0  0  0
    4.3713    9.8731   -4.5743 C   0  0  0  0  0  0  0  0  0  0  0  0
    5.7236   10.1602   -4.3800 C   0  0  0  0  0  0  0  0  0  0  0  0
    6.6247    9.1171   -4.1517 C   0  0  0  0  0  0  0  0  0  0  0  0
    8.0477    9.4229   -3.8454 C   0  0  0  0  0  0  0  0  0  0  0  0
    8.3436   10.5004   -3.3419 O   0  0  0  0  0  0  0  0  0  0  0  0
    8.9291    8.4053   -4.1354 N   0  0  0  0  0  0  0  0  0  0  0  0
   10.2960    8.6793   -3.9183 O   0  0  0  0  0  0  0  0  0  0  0  0
   10.6507    8.0974   -2.6655 C   0  0  0  0  0  0  0  0  0  0  0  0
    6.1599    7.7950   -4.1109 C   0  0  0  0  0  0  0  0  0  0  0  0
    4.9589    3.7882   -3.7571 C   0  0  0  0  0  0  0  0  0  0  0  0
    4.3188    3.3080   -2.5992 C   0  0  0  0  0  0  0  0  0  0  0  0
    3.4249    3.9738   -1.5577 C   0  0  0  0  0  0  0  0  0  0  0  0
    4.2402    4.5617   -0.4013 C   0  0  0  0  0  0  0  0  0  0  0  0
    2.3927    4.9790   -2.0462 C   0  0  0  0  0  0  0  0  0  0  0  0
    6.8570   -0.8915    1.2614 H   0  0  0  0  0  0  0  0  0  0  0  0
    6.4068    0.7081    0.6268 H   0  0  0  0  0  0  0  0  0  0  0  0
    7.4698   -0.3246   -0.3130 H   0  0  0  0  0  0  0  0  0  0  0  0
    4.5172   -0.9631    0.2959 H   0  0  0  0  0  0  0  0  0  0  0  0
    5.6221   -1.9774   -0.6367 H   0  0  0  0  0  0  0  0  0  0  0  0
    6.2219    0.7911   -3.7144 H   0  0  0  0  0  0  0  0  0  0  0  0
    7.0883    4.0867   -6.8626 H   0  0  0  0  0  0  0  0  0  0  0  0
    3.3426    6.0823   -4.3695 H   0  0  0  0  0  0  0  0  0  0  0  0
    2.8558    8.3623   -4.6481 H   0  0  0  0  0  0  0  0  0  0  0  0
    3.6681   10.6851   -4.7415 H   0  0  0  0  0  0  0  0  0  0  0  0
    6.0694   11.1921   -4.3869 H   0  0  0  0  0  0  0  0  0  0  0  0
    8.7301    7.7360   -4.8702 H   0  0  0  0  0  0  0  0  0  0  0  0
   11.7095    8.2892   -2.4776 H   0  0  0  0  0  0  0  0  0  0  0  0
   10.4877    7.0145   -2.6929 H   0  0  0  0  0  0  0  0  0  0  0  0
   10.0623    8.5425   -1.8563 H   0  0  0  0  0  0  0  0  0  0  0  0
    6.8466    6.9863   -3.8628 H   0  0  0  0  0  0  0  0  0  0  0  0
    2.8035    3.1794   -1.1271 H   0  0  0  0  0  0  0  0  0  0  0  0
    4.9419    5.3258   -0.7506 H   0  0  0  0  0  0  0  0  0  0  0  0
    4.8189    3.7837    0.1096 H   0  0  0  0  0  0  0  0  0  0  0  0
    3.5820    5.0194    0.3466 H   0  0  0  0  0  0  0  0  0  0  0  0
    2.8365    5.9413   -2.2951 H   0  0  0  0  0  0  0  0  0  0  0  0
    1.6744    5.1901   -1.2435 H   0  0  0  0  0  0  0  0  0  0  0  0
    1.8290    4.5963   -2.9018 H   0  0  0  0  0  0  0  0  0  0  0  0
  1  2  1  0  0  0  0
  1 30  1  0  0  0  0
  1 31  1  0  0  0  0
  1 32  1  0  0  0  0
  2  3  1  0  0  0  0
  2 33  1  0  0  0  0
  2 34  1  0  0  0  0
  3  4  1  0  0  0  0
  4  5  2  0  0  0  0
  4  6  1  0  0  0  0
  6  7  2  0  0  0  0
  6 26  1  0  0  0  0
  7  8  1  0  0  0  0
  7 35  1  0  0  0  0
  8  9  1  0  0  0  0
  8 25  1  0  0  0  0
  9 10  2  0  0  0  0
 10 11  1  0  0  0  0
 10 36  1  0  0  0  0
 11 12  2  0  0  0  0
 12 13  1  0  0  0  0
 12 25  1  0  0  0  0
 13 14  1  0  0  0  0
 13 37  1  0  0  0  0
 14 15  1  0  0  0  0
 14 24  2  0  0  0  0
 15 16  2  0  0  0  0
 15 38  1  0  0  0  0
 16 17  1  0  0  0  0
 16 39  1  0  0  0  0
 17 18  2  0  0  0  0
 17 40  1  0  0  0  0
 18 19  1  0  0  0  0
 18 24  1  0  0  0  0
 19 20  2  0  0  0  0
 19 21  1  0  0  0  0
 21 22  1  0  0  0  0
 21 41  1  0  0  0  0
 22 23  1  0  0  0  0
 23 42  1  0  0  0  0
 23 43  1  0  0  0  0
 23 44  1  0  0  0  0
 24 45  1  0  0  0  0
 25 26  2  0  0  0  0
 26 27  1  0  0  0  0
 27 28  1  0  0  0  0
 27 29  1  0  0  0  0
 27 46  1  0  0  0  0
 28 47  1  0  0  0  0
 28 48  1  0  0  0  0
 28 49  1  0  0  0  0
 29 50  1  0  0  0  0
 29 51  1  0  0  0  0
 29 52  1  0  0  0  0
M  END
$$$$
