CHEMBL1087002
 OpenBabel04072215363D

 57 61  0  0  0  0  0  0  0  0999 V2000
   -4.0777   -4.2428    5.8400 C   0  0  0  0  0  0  0  0  0  0  0  0
   -3.3608   -4.2139    4.5229 C   0  0  0  0  0  0  0  0  0  0  0  0
   -2.1616   -4.9152    4.3613 C   0  0  0  0  0  0  0  0  0  0  0  0
   -1.4674   -4.8442    3.1604 C   0  0  0  0  0  0  0  0  0  0  0  0
   -1.9744   -4.0884    2.0955 C   0  0  0  0  0  0  0  0  0  0  0  0
   -3.1952   -3.4150    2.2070 C   0  0  0  0  0  0  0  0  0  0  0  0
   -3.7864   -2.6729    1.1393 N   0  0  0  0  0  0  0  0  0  0  0  0
   -3.2707   -2.5228   -0.1530 C   0  0  0  0  0  0  0  0  0  0  0  0
   -2.2276   -2.9941   -0.5681 O   0  0  0  0  0  0  0  0  0  0  0  0
   -4.0421   -1.6453   -1.0932 C   0  0  0  0  0  0  0  0  0  0  0  0
   -3.3420   -0.9348   -2.0673 C   0  0  0  0  0  0  0  0  0  0  0  0
   -3.9965    0.0369   -2.8223 C   0  0  0  0  0  0  0  0  0  0  0  0
   -5.3805    0.2538   -2.6848 C   0  0  0  0  0  0  0  0  0  0  0  0
   -5.9306    1.5099   -3.3138 C   0  0  0  0  0  0  0  0  0  0  0  0
   -6.1407   -0.6673   -1.9258 C   0  0  0  0  0  0  0  0  0  0  0  0
   -7.5598   -0.7476   -2.0431 N   0  0  0  0  0  0  0  0  0  0  0  0
   -8.3028   -1.8574   -1.7138 C   0  0  0  0  0  0  0  0  0  0  0  0
   -7.9822   -2.7953   -0.8432 N   0  0  0  0  0  0  0  0  0  0  0  0
   -9.0691   -3.5947   -0.6861 C   0  0  0  0  0  0  0  0  0  0  0  0
   -9.2367   -4.6880    0.1770 C   0  0  0  0  0  0  0  0  0  0  0  0
  -10.4599   -5.3631    0.1865 C   0  0  0  0  0  0  0  0  0  0  0  0
  -11.4832   -4.9814   -0.6741 C   0  0  0  0  0  0  0  0  0  0  0  0
  -11.3166   -3.9155   -1.5624 C   0  0  0  0  0  0  0  0  0  0  0  0
  -10.1049   -3.1985   -1.5203 C   0  0  0  0  0  0  0  0  0  0  0  0
   -9.5967   -2.0902   -2.2047 N   0  0  0  0  0  0  0  0  0  0  0  0
  -10.2856   -1.3210   -3.1845 C   0  0  0  0  0  0  0  0  0  0  0  0
  -11.6547   -1.1806   -3.0649 C   0  0  0  0  0  0  0  0  0  0  0  0
  -12.2921   -0.3933   -3.9896 C   0  0  0  0  0  0  0  0  0  0  0  0
  -13.6264   -0.0555   -3.7951 N   0  0  0  0  0  0  0  0  0  0  0  0
  -11.6418    0.1844   -5.0008 N   0  0  0  0  0  0  0  0  0  0  0  0
  -10.3133   -0.0064   -5.0412 C   0  0  0  0  0  0  0  0  0  0  0  0
   -9.5799   -0.7013   -4.1548 N   0  0  0  0  0  0  0  0  0  0  0  0
   -5.4310   -1.5337   -1.0625 C   0  0  0  0  0  0  0  0  0  0  0  0
   -3.8755   -3.4733    3.4302 C   0  0  0  0  0  0  0  0  0  0  0  0
   -3.5298   -4.8413    6.5785 H   0  0  0  0  0  0  0  0  0  0  0  0
   -5.0728   -4.6853    5.7270 H   0  0  0  0  0  0  0  0  0  0  0  0
   -4.1727   -3.2302    6.2483 H   0  0  0  0  0  0  0  0  0  0  0  0
   -1.7491   -5.5033    5.1829 H   0  0  0  0  0  0  0  0  0  0  0  0
   -0.5175   -5.3716    3.0431 H   0  0  0  0  0  0  0  0  0  0  0  0
   -1.3789   -4.0437    1.1934 H   0  0  0  0  0  0  0  0  0  0  0  0
   -4.6506   -2.2003    1.3570 H   0  0  0  0  0  0  0  0  0  0  0  0
   -2.2752   -1.0918   -2.2059 H   0  0  0  0  0  0  0  0  0  0  0  0
   -3.4068    0.6503   -3.5009 H   0  0  0  0  0  0  0  0  0  0  0  0
   -5.1135    2.1424   -3.6903 H   0  0  0  0  0  0  0  0  0  0  0  0
   -6.4395    2.1166   -2.5559 H   0  0  0  0  0  0  0  0  0  0  0  0
   -6.6010    1.3093   -4.1513 H   0  0  0  0  0  0  0  0  0  0  0  0
   -7.9410   -0.1344   -2.7608 H   0  0  0  0  0  0  0  0  0  0  0  0
   -8.4268   -4.9903    0.8328 H   0  0  0  0  0  0  0  0  0  0  0  0
  -10.6070   -6.1985    0.8650 H   0  0  0  0  0  0  0  0  0  0  0  0
  -12.4278   -5.5219   -0.6640 H   0  0  0  0  0  0  0  0  0  0  0  0
  -12.1208   -3.6772   -2.2483 H   0  0  0  0  0  0  0  0  0  0  0  0
  -12.2167   -1.5718   -2.2309 H   0  0  0  0  0  0  0  0  0  0  0  0
  -14.2326   -0.8249   -3.5378 H   0  0  0  0  0  0  0  0  0  0  0  0
  -13.9603    0.4770   -4.5938 H   0  0  0  0  0  0  0  0  0  0  0  0
   -9.7828    0.4631   -5.8631 H   0  0  0  0  0  0  0  0  0  0  0  0
   -5.9684   -2.1722   -0.3732 H   0  0  0  0  0  0  0  0  0  0  0  0
   -4.8154   -2.9412    3.5639 H   0  0  0  0  0  0  0  0  0  0  0  0
  1  2  1  0  0  0  0
  1 35  1  0  0  0  0
  1 36  1  0  0  0  0
  1 37  1  0  0  0  0
  2  3  1  0  0  0  0
  2 34  2  0  0  0  0
  3  4  2  0  0  0  0
  3 38  1  0  0  0  0
  4  5  1  0  0  0  0
  4 39  1  0  0  0  0
  5  6  2  0  0  0  0
  5 40  1  0  0  0  0
  6  7  1  0  0  0  0
  6 34  1  0  0  0  0
  7  8  1  0  0  0  0
  7 41  1  0  0  0  0
  8  9  2  0  0  0  0
  8 10  1  0  0  0  0
 10 11  1  0  0  0  0
 10 33  2  0  0  0  0
 11 12  2  0  0  0  0
 11 42  1  0  0  0  0
 12 13  1  0  0  0  0
 12 43  1  0  0  0  0
 13 14  1  0  0  0  0
 13 15  2  0  0  0  0
 14 44  1  0  0  0  0
 14 45  1  0  0  0  0
 14 46  1  0  0  0  0
 15 16  1  0  0  0  0
 15 33  1  0  0  0  0
 16 17  1  0  0  0  0
 16 47  1  0  0  0  0
 17 18  2  0  0  0  0
 17 25  1  0  0  0  0
 18 19  1  0  0  0  0
 19 20  1  0  0  0  0
 19 24  2  0  0  0  0
 20 21  2  0  0  0  0
 20 48  1  0  0  0  0
 21 22  1  0  0  0  0
 21 49  1  0  0  0  0
 22 23  2  0  0  0  0
 22 50  1  0  0  0  0
 23 24  1  0  0  0  0
 23 51  1  0  0  0  0
 24 25  1  0  0  0  0
 25 26  1  0  0  0  0
 26 27  1  0  0  0  0
 26 32  2  0  0  0  0
 27 28  2  0  0  0  0
 27 52  1  0  0  0  0
 28 29  1  0  0  0  0
 28 30  1  0  0  0  0
 29 53  1  0  0  0  0
 29 54  1  0  0  0  0
 30 31  2  0  0  0  0
 31 32  1  0  0  0  0
 31 55  1  0  0  0  0
 33 56  1  0  0  0  0
 34 57  1  0  0  0  0
M  END
$$$$
