CHEMBL523559
 OpenBabel04072215383D

 63 67  0  0  0  0  0  0  0  0999 V2000
   -1.2923   -1.0693    1.7174 C   0  0  0  0  0  0  0  0  0  0  0  0
   -0.4166   -0.4665    0.7011 C   0  0  0  0  0  0  0  0  0  0  0  0
   -0.4412   -0.6014   -0.6062 N   0  0  0  0  0  0  0  0  0  0  0  0
    0.5923    0.1688   -1.0911 N   0  0  0  0  0  0  0  0  0  0  0  0
    1.1779    0.7196   -0.0463 C   0  0  0  0  0  0  0  0  0  0  0  0
    2.3332    1.6051    0.0023 C   0  0  0  0  0  0  0  0  0  0  0  0
    2.9566    1.9696   -1.1866 C   0  0  0  0  0  0  0  0  0  0  0  0
    4.1006    2.7746   -1.1788 C   0  0  0  0  0  0  0  0  0  0  0  0
    4.6379    3.3371   -0.0027 C   0  0  0  0  0  0  0  0  0  0  0  0
    5.8169    4.2662   -0.1096 C   0  0  0  0  0  0  0  0  0  0  0  0
    6.8754    4.1677    0.8303 C   0  0  0  0  0  0  0  0  0  0  0  0
    7.9255    5.0979    0.8719 C   0  0  0  0  0  0  0  0  0  0  0  0
    8.9002    5.1989    1.9972 C   0  0  0  0  0  0  0  0  0  0  0  0
    9.3952    6.3059    2.1959 O   0  0  0  0  0  0  0  0  0  0  0  0
    9.1870    4.0474    2.7158 N   0  0  0  0  0  0  0  0  0  0  0  0
   10.0189    3.9925    3.8670 C   0  0  0  0  0  0  0  0  0  0  0  0
   10.4175    5.1361    4.5604 C   0  0  0  0  0  0  0  0  0  0  0  0
   11.2535    5.0391    5.6659 C   0  0  0  0  0  0  0  0  0  0  0  0
   11.6719    3.7900    6.1078 C   0  0  0  0  0  0  0  0  0  0  0  0
   11.2592    2.6050    5.4791 C   0  0  0  0  0  0  0  0  0  0  0  0
   11.6421    1.3810    5.9818 N   0  0  0  0  0  0  0  0  0  0  0  0
   11.8000    1.1429    7.4271 C   0  0  0  0  0  0  0  0  0  0  0  0
   13.2109    0.6139    7.7137 C   0  0  0  0  0  0  0  0  0  0  0  0
   13.4869   -0.5712    6.9462 O   0  0  0  0  0  0  0  0  0  0  0  0
   13.3928   -0.2846    5.5384 C   0  0  0  0  0  0  0  0  0  0  0  0
   11.9942    0.2325    5.1353 C   0  0  0  0  0  0  0  0  0  0  0  0
   10.4392    2.7362    4.3418 C   0  0  0  0  0  0  0  0  0  0  0  0
    8.0027    6.0837   -0.1118 C   0  0  0  0  0  0  0  0  0  0  0  0
    7.0358    6.1581   -1.1025 C   0  0  0  0  0  0  0  0  0  0  0  0
    5.9273    5.2897   -1.1016 C   0  0  0  0  0  0  0  0  0  0  0  0
    4.9166    5.5433   -2.1968 C   0  0  0  0  0  0  0  0  0  0  0  0
    3.9939    2.9701    1.2131 C   0  0  0  0  0  0  0  0  0  0  0  0
    4.4348    3.3982    2.5931 C   0  0  0  0  0  0  0  0  0  0  0  0
    2.8752    2.0935    1.1943 C   0  0  0  0  0  0  0  0  0  0  0  0
    0.5854    0.3604    1.1380 O   0  0  0  0  0  0  0  0  0  0  0  0
   -2.0055   -1.7556    1.2502 H   0  0  0  0  0  0  0  0  0  0  0  0
   -1.8570   -0.2948    2.2435 H   0  0  0  0  0  0  0  0  0  0  0  0
   -0.7046   -1.6328    2.4474 H   0  0  0  0  0  0  0  0  0  0  0  0
    2.5669    1.6183   -2.1415 H   0  0  0  0  0  0  0  0  0  0  0  0
    4.5724    2.9484   -2.1409 H   0  0  0  0  0  0  0  0  0  0  0  0
    6.8386    3.3869    1.5841 H   0  0  0  0  0  0  0  0  0  0  0  0
    8.8776    3.1623    2.3400 H   0  0  0  0  0  0  0  0  0  0  0  0
   10.0846    6.1292    4.2767 H   0  0  0  0  0  0  0  0  0  0  0  0
   11.5761    5.9408    6.1808 H   0  0  0  0  0  0  0  0  0  0  0  0
   12.3562    3.7614    6.9527 H   0  0  0  0  0  0  0  0  0  0  0  0
   11.0645    0.3822    7.7168 H   0  0  0  0  0  0  0  0  0  0  0  0
   11.5950    2.0251    8.0383 H   0  0  0  0  0  0  0  0  0  0  0  0
   13.2983    0.3523    8.7729 H   0  0  0  0  0  0  0  0  0  0  0  0
   13.9721    1.3704    7.4906 H   0  0  0  0  0  0  0  0  0  0  0  0
   13.6151   -1.2127    5.0018 H   0  0  0  0  0  0  0  0  0  0  0  0
   14.1692    0.4449    5.2783 H   0  0  0  0  0  0  0  0  0  0  0  0
   11.2536   -0.5588    5.3060 H   0  0  0  0  0  0  0  0  0  0  0  0
   11.9995    0.4767    4.0766 H   0  0  0  0  0  0  0  0  0  0  0  0
   10.1018    1.8371    3.8367 H   0  0  0  0  0  0  0  0  0  0  0  0
    8.8029    6.8215   -0.0938 H   0  0  0  0  0  0  0  0  0  0  0  0
    7.1304    6.9383   -1.8565 H   0  0  0  0  0  0  0  0  0  0  0  0
    5.1002    6.5028   -2.6960 H   0  0  0  0  0  0  0  0  0  0  0  0
    3.9009    5.5902   -1.7965 H   0  0  0  0  0  0  0  0  0  0  0  0
    4.9938    4.7845   -2.9805 H   0  0  0  0  0  0  0  0  0  0  0  0
    5.0155    4.3213    2.5977 H   0  0  0  0  0  0  0  0  0  0  0  0
    5.0229    2.5950    3.0530 H   0  0  0  0  0  0  0  0  0  0  0  0
    3.5652    3.5928    3.2307 H   0  0  0  0  0  0  0  0  0  0  0  0
    2.4234    1.7973    2.1416 H   0  0  0  0  0  0  0  0  0  0  0  0
  1  2  1  0  0  0  0
  1 36  1  0  0  0  0
  1 37  1  0  0  0  0
  1 38  1  0  0  0  0
  2  3  2  0  0  0  0
  2 35  1  0  0  0  0
  3  4  1  0  0  0  0
  4  5  2  0  0  0  0
  5  6  1  0  0  0  0
  5 35  1  0  0  0  0
  6  7  1  0  0  0  0
  6 34  2  0  0  0  0
  7  8  2  0  0  0  0
  7 39  1  0  0  0  0
  8  9  1  0  0  0  0
  8 40  1  0  0  0  0
  9 10  1  0  0  0  0
  9 32  2  0  0  0  0
 10 11  1  0  0  0  0
 10 30  2  0  0  0  0
 11 12  2  0  0  0  0
 11 41  1  0  0  0  0
 12 13  1  0  0  0  0
 12 28  1  0  0  0  0
 13 14  2  0  0  0  0
 13 15  1  0  0  0  0
 15 16  1  0  0  0  0
 15 42  1  0  0  0  0
 16 17  1  0  0  0  0
 16 27  2  0  0  0  0
 17 18  2  0  0  0  0
 17 43  1  0  0  0  0
 18 19  1  0  0  0  0
 18 44  1  0  0  0  0
 19 20  2  0  0  0  0
 19 45  1  0  0  0  0
 20 21  1  0  0  0  0
 20 27  1  0  0  0  0
 21 22  1  0  0  0  0
 21 26  1  0  0  0  0
 22 23  1  0  0  0  0
 22 46  1  0  0  0  0
 22 47  1  0  0  0  0
 23 24  1  0  0  0  0
 23 48  1  0  0  0  0
 23 49  1  0  0  0  0
 24 25  1  0  0  0  0
 25 26  1  0  0  0  0
 25 50  1  0  0  0  0
 25 51  1  0  0  0  0
 26 52  1  0  0  0  0
 26 53  1  0  0  0  0
 27 54  1  0  0  0  0
 28 29  2  0  0  0  0
 28 55  1  0  0  0  0
 29 30  1  0  0  0  0
 29 56  1  0  0  0  0
 30 31  1  0  0  0  0
 31 57  1  0  0  0  0
 31 58  1  0  0  0  0
 31 59  1  0  0  0  0
 32 33  1  0  0  0  0
 32 34  1  0  0  0  0
 33 60  1  0  0  0  0
 33 61  1  0  0  0  0
 33 62  1  0  0  0  0
 34 63  1  0  0  0  0
M  END
$$$$
