CHEMBL1992607
 OpenBabel04072215363D

 22 23  0  0  0  0  0  0  0  0999 V2000
    1.1356   -0.0241   -0.2722 N   0  0  0  0  0  0  0  0  0  0  0  0
    2.5213   -0.0912   -0.1170 C   0  0  0  0  0  0  0  0  0  0  0  0
    3.1512    1.0858   -0.2487 N   0  0  0  0  0  0  0  0  0  0  0  0
    4.4860    1.0478   -0.1953 C   0  0  0  0  0  0  0  0  0  0  0  0
    5.2332   -0.0437   -0.0063 N   0  0  0  0  0  0  0  0  0  0  0  0
    4.5862   -1.2163    0.1205 C   0  0  0  0  0  0  0  0  0  0  0  0
    3.2035   -1.2956    0.0510 C   0  0  0  0  0  0  0  0  0  0  0  0
    2.4319   -2.5445    0.1746 C   0  0  0  0  0  0  0  0  0  0  0  0
    1.3698   -2.5590    0.7963 O   0  0  0  0  0  0  0  0  0  0  0  0
    2.8183   -3.6804   -0.4983 N   0  0  0  0  0  0  0  0  0  0  0  0
    4.1479   -4.2651   -0.4724 C   0  0  0  0  0  0  0  0  0  0  0  0
    5.3192   -3.3147   -0.7060 C   0  0  0  0  0  0  0  0  0  0  0  0
    5.4209   -2.3158    0.3566 N   0  0  0  0  0  0  0  0  0  0  0  0
    0.8403    0.9459   -0.2579 H   0  0  0  0  0  0  0  0  0  0  0  0
    0.6507   -0.6173    0.4030 H   0  0  0  0  0  0  0  0  0  0  0  0
    5.0112    1.9889   -0.3206 H   0  0  0  0  0  0  0  0  0  0  0  0
    2.0759   -4.3686   -0.4340 H   0  0  0  0  0  0  0  0  0  0  0  0
    4.1568   -5.0539   -1.2320 H   0  0  0  0  0  0  0  0  0  0  0  0
    4.2495   -4.7463    0.5076 H   0  0  0  0  0  0  0  0  0  0  0  0
    5.2631   -2.8464   -1.6968 H   0  0  0  0  0  0  0  0  0  0  0  0
    6.2434   -3.9043   -0.6894 H   0  0  0  0  0  0  0  0  0  0  0  0
    5.1829   -2.7154    1.2622 H   0  0  0  0  0  0  0  0  0  0  0  0
  1  2  1  0  0  0  0
  1 14  1  0  0  0  0
  1 15  1  0  0  0  0
  2  3  1  0  0  0  0
  2  7  2  0  0  0  0
  3  4  2  0  0  0  0
  4  5  1  0  0  0  0
  4 16  1  0  0  0  0
  5  6  2  0  0  0  0
  6  7  1  0  0  0  0
  6 13  1  0  0  0  0
  7  8  1  0  0  0  0
  8  9  2  0  0  0  0
  8 10  1  0  0  0  0
 10 11  1  0  0  0  0
 10 17  1  0  0  0  0
 11 12  1  0  0  0  0
 11 18  1  0  0  0  0
 11 19  1  0  0  0  0
 12 13  1  0  0  0  0
 12 20  1  0  0  0  0
 12 21  1  0  0  0  0
 13 22  1  0  0  0  0
M  END
$$$$
