CHEMBL2113188
 OpenBabel04072215363D

 60 63  0  0  1  0  0  0  0  0999 V2000
    1.1492   -1.5031    2.7975 C   0  0  0  0  0  0  0  0  0  0  0  0
    2.0502   -0.4176    2.6281 O   0  0  0  0  0  0  0  0  0  0  0  0
    3.1084   -0.7799    1.7456 C   0  0  0  0  0  0  0  0  0  0  0  0
    4.0125    0.4096    1.4695 C   0  0  0  0  0  0  0  0  0  0  0  0
    4.7059    0.8488    2.6270 O   0  0  0  0  0  0  0  0  0  0  0  0
    6.0660    0.9721    2.5841 C   0  0  0  0  0  0  0  0  0  0  0  0
    6.6263    0.7139    3.8658 C   0  0  0  0  0  0  0  0  0  0  0  0
    7.9887    0.7436    4.1322 C   0  0  0  0  0  0  0  0  0  0  0  0
    8.4544    0.4504    5.3541 N   0  0  0  0  0  0  0  0  0  0  0  0
    9.7832    0.4921    5.5282 C   0  0  0  0  0  0  0  0  0  0  0  0
   10.6846    0.8285    4.6044 N   0  0  0  0  0  0  0  0  0  0  0  0
   10.2045    1.1324    3.3909 C   0  0  0  0  0  0  0  0  0  0  0  0
   11.1200    1.5573    2.3809 N   0  0  0  0  0  0  0  0  0  0  0  0
   12.4958    1.4529    2.5346 C   0  0  0  0  0  0  0  0  0  0  0  0
   13.1504    0.3666    2.9632 C   0  0  0  0  0  0  0  0  0  0  0  0
   14.6081    0.3355    3.1554 C   0  0  0  0  0  0  0  0  0  0  0  0
   15.1357   -0.6335    3.6898 O   0  0  0  0  0  0  0  0  0  0  0  0
   15.3985    1.4989    2.6545 C   0  0  0  0  0  0  0  0  0  0  0  0
   16.7736    1.3579    2.6870 O   0  0  0  0  0  0  0  0  0  0  0  0
   17.5340    1.9604    1.6187 C   0  0  3  0  0  0  0  0  0  0  0  0
   18.1666    3.2712    2.0632 C   0  0  0  0  0  0  0  0  0  0  0  0
   18.4823    3.5173    3.4084 C   0  0  0  0  0  0  0  0  0  0  0  0
   19.2349    4.6375    3.7635 C   0  0  0  0  0  0  0  0  0  0  0  0
   19.6777    5.5219    2.7824 C   0  0  0  0  0  0  0  0  0  0  0  0
   19.3231    5.3193    1.4509 C   0  0  0  0  0  0  0  0  0  0  0  0
   18.5594    4.2085    1.0928 C   0  0  0  0  0  0  0  0  0  0  0  0
   18.6044    0.9706    1.0867 C   0  0  0  0  0  0  0  0  0  0  0  0
   18.4946   -0.2603    1.6353 F   0  0  0  0  0  0  0  0  0  0  0  0
   18.4554    0.8142   -0.2565 F   0  0  0  0  0  0  0  0  0  0  0  0
   19.8764    1.3833    1.2896 F   0  0  0  0  0  0  0  0  0  0  0  0
   14.7506    2.5932    2.2221 C   0  0  0  0  0  0  0  0  0  0  0  0
   13.2817    2.6686    2.1646 C   0  0  0  0  0  0  0  0  0  0  0  0
   12.7152    3.6914    1.7893 O   0  0  0  0  0  0  0  0  0  0  0  0
    8.8422    1.0794    3.0816 C   0  0  0  0  0  0  0  0  0  0  0  0
    8.2996    1.3165    1.8025 C   0  0  0  0  0  0  0  0  0  0  0  0
    6.9243    1.2921    1.5289 C   0  0  0  0  0  0  0  0  0  0  0  0
    6.7439    1.5652    0.2090 O   0  0  0  0  0  0  0  0  0  0  0  0
    5.5662    2.0857   -0.3687 C   0  0  0  0  0  0  0  0  0  0  0  0
    0.3894   -1.2122    3.5259 H   0  0  0  0  0  0  0  0  0  0  0  0
    1.6780   -2.3866    3.1685 H   0  0  0  0  0  0  0  0  0  0  0  0
    0.6574   -1.7329    1.8469 H   0  0  0  0  0  0  0  0  0  0  0  0
    2.6776   -1.0994    0.7887 H   0  0  0  0  0  0  0  0  0  0  0  0
    3.6882   -1.6004    2.1794 H   0  0  0  0  0  0  0  0  0  0  0  0
    3.3915    1.2474    1.1356 H   0  0  0  0  0  0  0  0  0  0  0  0
    4.6961    0.0748    0.6931 H   0  0  0  0  0  0  0  0  0  0  0  0
    5.9574    0.4554    4.6852 H   0  0  0  0  0  0  0  0  0  0  0  0
   10.1599    0.2344    6.5109 H   0  0  0  0  0  0  0  0  0  0  0  0
   10.8651    2.5001    2.0690 H   0  0  0  0  0  0  0  0  0  0  0  0
   12.6219   -0.5442    3.2214 H   0  0  0  0  0  0  0  0  0  0  0  0
   16.8638    2.1654    0.7723 H   0  0  0  0  0  0  0  0  0  0  0  0
   18.1811    2.8215    4.1902 H   0  0  0  0  0  0  0  0  0  0  0  0
   19.5031    4.8031    4.8041 H   0  0  0  0  0  0  0  0  0  0  0  0
   20.3083    6.3643    3.0550 H   0  0  0  0  0  0  0  0  0  0  0  0
   19.6675    6.0116    0.6867 H   0  0  0  0  0  0  0  0  0  0  0  0
   18.3163    4.0592    0.0423 H   0  0  0  0  0  0  0  0  0  0  0  0
   15.2627    3.4879    1.8998 H   0  0  0  0  0  0  0  0  0  0  0  0
    8.9762    1.5185    0.9698 H   0  0  0  0  0  0  0  0  0  0  0  0
    5.8487    2.8574   -1.0908 H   0  0  0  0  0  0  0  0  0  0  0  0
    4.8788    2.5399    0.3438 H   0  0  0  0  0  0  0  0  0  0  0  0
    5.0917    1.2890   -0.9527 H   0  0  0  0  0  0  0  0  0  0  0  0
  1  2  1  0  0  0  0
  1 39  1  0  0  0  0
  1 40  1  0  0  0  0
  1 41  1  0  0  0  0
  2  3  1  0  0  0  0
  3  4  1  0  0  0  0
  3 42  1  0  0  0  0
  3 43  1  0  0  0  0
  4  5  1  0  0  0  0
  4 44  1  0  0  0  0
  4 45  1  0  0  0  0
  5  6  1  0  0  0  0
  6  7  1  0  0  0  0
  6 36  2  0  0  0  0
  7  8  2  0  0  0  0
  7 46  1  0  0  0  0
  8  9  1  0  0  0  0
  8 34  1  0  0  0  0
  9 10  2  0  0  0  0
 10 11  1  0  0  0  0
 10 47  1  0  0  0  0
 11 12  2  0  0  0  0
 12 13  1  0  0  0  0
 12 34  1  0  0  0  0
 13 14  1  0  0  0  0
 13 48  1  0  0  0  0
 14 15  2  0  0  0  0
 14 32  1  0  0  0  0
 15 16  1  0  0  0  0
 15 49  1  0  0  0  0
 16 17  2  0  0  0  0
 16 18  1  0  0  0  0
 18 19  1  0  0  0  0
 18 31  2  0  0  0  0
 19 20  1  0  0  0  0
 20 21  1  0  0  0  0
 20 27  1  0  0  0  0
 20 50  1  0  0  0  0
 21 22  1  0  0  0  0
 21 26  2  0  0  0  0
 22 23  2  0  0  0  0
 22 51  1  0  0  0  0
 23 24  1  0  0  0  0
 23 52  1  0  0  0  0
 24 25  2  0  0  0  0
 24 53  1  0  0  0  0
 25 26  1  0  0  0  0
 25 54  1  0  0  0  0
 26 55  1  0  0  0  0
 27 28  1  0  0  0  0
 27 29  1  0  0  0  0
 27 30  1  0  0  0  0
 31 32  1  0  0  0  0
 31 56  1  0  0  0  0
 32 33  2  0  0  0  0
 34 35  2  0  0  0  0
 35 36  1  0  0  0  0
 35 57  1  0  0  0  0
 36 37  1  0  0  0  0
 37 38  1  0  0  0  0
 38 58  1  0  0  0  0
 38 59  1  0  0  0  0
 38 60  1  0  0  0  0
M  END
$$$$
