CHEMBL4454772
 OpenBabel04072215383D

 54 57  0  0  0  0  0  0  0  0999 V2000
    1.4450    0.6834   -0.5314 C   0  0  0  0  0  0  0  0  0  0  0  0
    2.5289   -0.0476    0.0335 O   0  0  0  0  0  0  0  0  0  0  0  0
    3.0084   -1.0968   -0.7045 C   0  0  0  0  0  0  0  0  0  0  0  0
    4.0774   -1.8002   -0.1012 C   0  0  0  0  0  0  0  0  0  0  0  0
    4.6880   -2.8954   -0.7291 C   0  0  0  0  0  0  0  0  0  0  0  0
    4.2019   -3.2609   -1.9628 C   0  0  0  0  0  0  0  0  0  0  0  0
    3.1452   -2.5714   -2.5533 C   0  0  0  0  0  0  0  0  0  0  0  0
    2.5277   -1.4904   -1.9534 C   0  0  0  0  0  0  0  0  0  0  0  0
    2.8765   -3.2103   -3.8340 C   0  0  0  0  0  0  0  0  0  0  0  0
    1.9524   -2.8571   -4.6702 N   0  0  0  0  0  0  0  0  0  0  0  0
    1.8396   -3.5875   -5.8220 N   0  0  0  0  0  0  0  0  0  0  0  0
    0.8575   -3.2734   -6.7566 C   0  0  0  0  0  0  0  0  0  0  0  0
    0.0831   -2.3241   -6.6775 O   0  0  0  0  0  0  0  0  0  0  0  0
    0.7810   -4.1756   -7.9448 C   0  0  0  0  0  0  0  0  0  0  0  0
    1.1841   -5.5065   -7.8677 C   0  0  0  0  0  0  0  0  0  0  0  0
    1.1153   -6.3303   -8.9949 C   0  0  0  0  0  0  0  0  0  0  0  0
    0.6265   -5.8641  -10.2187 C   0  0  0  0  0  0  0  0  0  0  0  0
    0.5741   -6.6749  -11.3845 N   0  0  0  0  0  0  0  0  0  0  0  0
    0.8988   -8.0228  -11.4413 C   0  0  0  0  0  0  0  0  0  0  0  0
    1.1818   -8.7253  -10.4772 O   0  0  0  0  0  0  0  0  0  0  0  0
    0.9278   -8.5103  -12.7433 N   0  0  0  0  0  0  0  0  0  0  0  0
    1.2774   -9.8640  -12.9836 C   0  0  0  0  0  0  0  0  0  0  0  0
    2.2247  -10.1526  -13.9599 C   0  0  0  0  0  0  0  0  0  0  0  0
    2.6387  -11.4731  -14.1540 C   0  0  0  0  0  0  0  0  0  0  0  0
    2.0844  -12.5228  -13.4063 C   0  0  0  0  0  0  0  0  0  0  0  0
    2.6621  -14.1071  -13.7710 Cl  0  0  0  0  0  0  0  0  0  0  0  0
    1.1177  -12.2613  -12.4320 C   0  0  0  0  0  0  0  0  0  0  0  0
    0.4731  -13.3063  -11.5585 C   0  0  0  0  0  0  0  0  0  0  0  0
    0.8682  -14.5909  -11.7607 F   0  0  0  0  0  0  0  0  0  0  0  0
    0.6878  -13.0707  -10.2322 F   0  0  0  0  0  0  0  0  0  0  0  0
   -0.8840  -13.3228  -11.7079 F   0  0  0  0  0  0  0  0  0  0  0  0
    0.7242  -10.9150  -12.2366 C   0  0  0  0  0  0  0  0  0  0  0  0
    0.1885   -4.5350  -10.2877 C   0  0  0  0  0  0  0  0  0  0  0  0
    0.2608   -3.6974   -9.1562 C   0  0  0  0  0  0  0  0  0  0  0  0
    3.8928   -4.3509   -3.9431 C   0  0  0  0  0  0  0  0  0  0  0  0
    3.9784   -5.1100   -4.8856 O   0  0  0  0  0  0  0  0  0  0  0  0
    4.6368   -4.3014   -2.7812 N   0  0  0  0  0  0  0  0  0  0  0  0
    1.2062    1.5072    0.1473 H   0  0  0  0  0  0  0  0  0  0  0  0
    0.5544    0.0523   -0.6209 H   0  0  0  0  0  0  0  0  0  0  0  0
    1.7194    1.1195   -1.4980 H   0  0  0  0  0  0  0  0  0  0  0  0
    4.4317   -1.4789    0.8776 H   0  0  0  0  0  0  0  0  0  0  0  0
    5.5052   -3.4216   -0.2489 H   0  0  0  0  0  0  0  0  0  0  0  0
    1.7100   -0.9975   -2.4653 H   0  0  0  0  0  0  0  0  0  0  0  0
    2.5151   -4.3338   -5.9880 H   0  0  0  0  0  0  0  0  0  0  0  0
    1.5366   -5.9481   -6.9389 H   0  0  0  0  0  0  0  0  0  0  0  0
    1.4567   -7.3504   -8.8586 H   0  0  0  0  0  0  0  0  0  0  0  0
    0.1704   -6.2636  -12.2137 H   0  0  0  0  0  0  0  0  0  0  0  0
    1.2360   -7.8390  -13.4323 H   0  0  0  0  0  0  0  0  0  0  0  0
    2.7021   -9.3615  -14.5306 H   0  0  0  0  0  0  0  0  0  0  0  0
    3.4169  -11.6803  -14.8863 H   0  0  0  0  0  0  0  0  0  0  0  0
   -0.0271  -10.6946  -11.4760 H   0  0  0  0  0  0  0  0  0  0  0  0
   -0.2128   -4.1229  -11.2105 H   0  0  0  0  0  0  0  0  0  0  0  0
   -0.0880   -2.6684   -9.2240 H   0  0  0  0  0  0  0  0  0  0  0  0
    5.3903   -4.9399   -2.5724 H   0  0  0  0  0  0  0  0  0  0  0  0
  1  2  1  0  0  0  0
  1 38  1  0  0  0  0
  1 39  1  0  0  0  0
  1 40  1  0  0  0  0
  2  3  1  0  0  0  0
  3  4  1  0  0  0  0
  3  8  2  0  0  0  0
  4  5  2  0  0  0  0
  4 41  1  0  0  0  0
  5  6  1  0  0  0  0
  5 42  1  0  0  0  0
  6  7  2  0  0  0  0
  6 37  1  0  0  0  0
  7  8  1  0  0  0  0
  7  9  1  0  0  0  0
  8 43  1  0  0  0  0
  9 10  2  0  0  0  0
  9 35  1  0  0  0  0
 10 11  1  0  0  0  0
 11 12  1  0  0  0  0
 11 44  1  0  0  0  0
 12 13  2  0  0  0  0
 12 14  1  0  0  0  0
 14 15  1  0  0  0  0
 14 34  2  0  0  0  0
 15 16  2  0  0  0  0
 15 45  1  0  0  0  0
 16 17  1  0  0  0  0
 16 46  1  0  0  0  0
 17 18  1  0  0  0  0
 17 33  2  0  0  0  0
 18 19  1  0  0  0  0
 18 47  1  0  0  0  0
 19 20  2  0  0  0  0
 19 21  1  0  0  0  0
 21 22  1  0  0  0  0
 21 48  1  0  0  0  0
 22 23  1  0  0  0  0
 22 32  2  0  0  0  0
 23 24  2  0  0  0  0
 23 49  1  0  0  0  0
 24 25  1  0  0  0  0
 24 50  1  0  0  0  0
 25 26  1  0  0  0  0
 25 27  2  0  0  0  0
 27 28  1  0  0  0  0
 27 32  1  0  0  0  0
 28 29  1  0  0  0  0
 28 30  1  0  0  0  0
 28 31  1  0  0  0  0
 32 51  1  0  0  0  0
 33 34  1  0  0  0  0
 33 52  1  0  0  0  0
 34 53  1  0  0  0  0
 35 36  2  0  0  0  0
 35 37  1  0  0  0  0
 37 54  1  0  0  0  0
M  END
$$$$
