CHEMBL3962233
 OpenBabel04072215373D

 75 79  0  0  0  0  0  0  0  0999 V2000
    2.6890   -0.0791   -1.3564 C   0  0  0  0  0  0  0  0  0  0  0  0
    2.3753   -0.1995    0.0229 O   0  0  0  0  0  0  0  0  0  0  0  0
    3.0640    0.5096    0.9597 C   0  0  0  0  0  0  0  0  0  0  0  0
    4.2484    1.1851    0.6706 C   0  0  0  0  0  0  0  0  0  0  0  0
    4.8988    1.9802    1.6394 C   0  0  0  0  0  0  0  0  0  0  0  0
    6.0491    2.7456    1.3753 C   0  0  0  0  0  0  0  0  0  0  0  0
    6.4655    2.8765    0.0322 N   0  0  0  0  0  0  0  0  0  0  0  0
    7.7471    3.0923   -0.4912 C   0  0  0  0  0  0  0  0  0  0  0  0
    7.8686    3.4348   -1.8390 C   0  0  0  0  0  0  0  0  0  0  0  0
    9.1135    3.4704   -2.4668 C   0  0  0  0  0  0  0  0  0  0  0  0
   10.2819    3.1240   -1.7757 C   0  0  0  0  0  0  0  0  0  0  0  0
   11.5393    3.0068   -2.4279 N   0  0  0  0  0  0  0  0  0  0  0  0
   11.7167    2.9403   -3.7952 C   0  0  0  0  0  0  0  0  0  0  0  0
   10.8175    3.0703   -4.6192 O   0  0  0  0  0  0  0  0  0  0  0  0
   13.0220    2.6327   -4.1575 N   0  0  0  0  0  0  0  0  0  0  0  0
   13.3139    2.4344   -5.5312 C   0  0  0  0  0  0  0  0  0  0  0  0
   12.8498    3.3310   -6.5027 C   0  0  0  0  0  0  0  0  0  0  0  0
   12.9847    3.0384   -7.8596 C   0  0  0  0  0  0  0  0  0  0  0  0
   13.5930    1.8480   -8.2433 C   0  0  0  0  0  0  0  0  0  0  0  0
   13.6948    1.4439   -9.9123 Cl  0  0  0  0  0  0  0  0  0  0  0  0
   14.1032    0.9728   -7.2829 C   0  0  0  0  0  0  0  0  0  0  0  0
   13.9878    1.2778   -5.9213 C   0  0  0  0  0  0  0  0  0  0  0  0
   10.1695    2.8300   -0.4127 C   0  0  0  0  0  0  0  0  0  0  0  0
   11.5624    2.3959    0.5224 Cl  0  0  0  0  0  0  0  0  0  0  0  0
    8.9169    2.8051    0.2182 C   0  0  0  0  0  0  0  0  0  0  0  0
    6.7133    3.3983    2.3389 N   0  0  0  0  0  0  0  0  0  0  0  0
    6.1913    3.3283    3.5652 C   0  0  0  0  0  0  0  0  0  0  0  0
    5.0602    2.6969    3.9151 N   0  0  0  0  0  0  0  0  0  0  0  0
    4.4202    2.0196    2.9505 C   0  0  0  0  0  0  0  0  0  0  0  0
    3.2456    1.3317    3.2360 C   0  0  0  0  0  0  0  0  0  0  0  0
    2.5600    0.5739    2.2679 C   0  0  0  0  0  0  0  0  0  0  0  0
    1.3944   -0.0117    2.7266 O   0  0  0  0  0  0  0  0  0  0  0  0
    1.1077   -1.2908    2.1523 C   0  0  0  0  0  0  0  0  0  0  0  0
   -0.0732   -1.9655    2.8475 C   0  0  0  0  0  0  0  0  0  0  0  0
   -0.3191   -3.3576    2.2367 C   0  0  0  0  0  0  0  0  0  0  0  0
    0.8425   -4.2513    2.3580 N   0  0  0  0  0  0  0  0  0  0  0  0
    1.1571   -4.5706    3.7621 C   0  0  0  0  0  0  0  0  0  0  0  0
    2.3678   -5.5197    3.8822 C   0  0  0  0  0  0  0  0  0  0  0  0
    2.2237   -6.7891    3.1470 N   0  0  0  0  0  0  0  0  0  0  0  0
    1.2530   -7.6708    3.7911 C   0  0  0  0  0  0  0  0  0  0  0  0
    1.8459   -6.4880    1.7504 C   0  0  0  0  0  0  0  0  0  0  0  0
    0.6670   -5.4924    1.5784 C   0  0  0  0  0  0  0  0  0  0  0  0
    3.3192   -0.9193   -1.6626 H   0  0  0  0  0  0  0  0  0  0  0  0
    3.1514    0.8716   -1.6321 H   0  0  0  0  0  0  0  0  0  0  0  0
    1.7467   -0.1393   -1.9089 H   0  0  0  0  0  0  0  0  0  0  0  0
    4.7132    1.0862   -0.3045 H   0  0  0  0  0  0  0  0  0  0  0  0
    5.7255    3.3072   -0.5144 H   0  0  0  0  0  0  0  0  0  0  0  0
    6.9874    3.6483   -2.4434 H   0  0  0  0  0  0  0  0  0  0  0  0
    9.1201    3.7534   -3.5142 H   0  0  0  0  0  0  0  0  0  0  0  0
   12.3309    2.8139   -1.8285 H   0  0  0  0  0  0  0  0  0  0  0  0
   13.5118    2.0382   -3.5055 H   0  0  0  0  0  0  0  0  0  0  0  0
   12.3367    4.2461   -6.2115 H   0  0  0  0  0  0  0  0  0  0  0  0
   12.5820    3.7247   -8.5993 H   0  0  0  0  0  0  0  0  0  0  0  0
   14.5592    0.0349   -7.5877 H   0  0  0  0  0  0  0  0  0  0  0  0
   14.3470    0.5619   -5.1882 H   0  0  0  0  0  0  0  0  0  0  0  0
    8.8585    2.5254    1.2654 H   0  0  0  0  0  0  0  0  0  0  0  0
    6.7346    3.8350    4.3561 H   0  0  0  0  0  0  0  0  0  0  0  0
    2.8496    1.3775    4.2484 H   0  0  0  0  0  0  0  0  0  0  0  0
    2.0027   -1.9201    2.2212 H   0  0  0  0  0  0  0  0  0  0  0  0
    0.7928   -1.1751    1.1146 H   0  0  0  0  0  0  0  0  0  0  0  0
   -0.9705   -1.3480    2.7110 H   0  0  0  0  0  0  0  0  0  0  0  0
    0.0792   -2.0111    3.9310 H   0  0  0  0  0  0  0  0  0  0  0  0
   -0.5423   -3.2129    1.1703 H   0  0  0  0  0  0  0  0  0  0  0  0
   -1.2129   -3.8088    2.6844 H   0  0  0  0  0  0  0  0  0  0  0  0
    0.2831   -5.0083    4.2608 H   0  0  0  0  0  0  0  0  0  0  0  0
    1.4176   -3.6586    4.3084 H   0  0  0  0  0  0  0  0  0  0  0  0
    2.5756   -5.7149    4.9414 H   0  0  0  0  0  0  0  0  0  0  0  0
    3.2580   -5.0009    3.5002 H   0  0  0  0  0  0  0  0  0  0  0  0
    1.5274   -7.8426    4.8382 H   0  0  0  0  0  0  0  0  0  0  0  0
    1.2542   -8.6516    3.3041 H   0  0  0  0  0  0  0  0  0  0  0  0
    0.2299   -7.2825    3.7706 H   0  0  0  0  0  0  0  0  0  0  0  0
    1.6229   -7.4182    1.2130 H   0  0  0  0  0  0  0  0  0  0  0  0
    2.7290   -6.0664    1.2512 H   0  0  0  0  0  0  0  0  0  0  0  0
   -0.2700   -5.9904    1.8565 H   0  0  0  0  0  0  0  0  0  0  0  0
    0.5954   -5.2416    0.5126 H   0  0  0  0  0  0  0  0  0  0  0  0
  1  2  1  0  0  0  0
  1 43  1  0  0  0  0
  1 44  1  0  0  0  0
  1 45  1  0  0  0  0
  2  3  1  0  0  0  0
  3  4  1  0  0  0  0
  3 31  2  0  0  0  0
  4  5  2  0  0  0  0
  4 46  1  0  0  0  0
  5  6  1  0  0  0  0
  5 29  1  0  0  0  0
  6  7  1  0  0  0  0
  6 26  2  0  0  0  0
  7  8  1  0  0  0  0
  7 47  1  0  0  0  0
  8  9  1  0  0  0  0
  8 25  2  0  0  0  0
  9 10  2  0  0  0  0
  9 48  1  0  0  0  0
 10 11  1  0  0  0  0
 10 49  1  0  0  0  0
 11 12  1  0  0  0  0
 11 23  2  0  0  0  0
 12 13  1  0  0  0  0
 12 50  1  0  0  0  0
 13 14  2  0  0  0  0
 13 15  1  0  0  0  0
 15 16  1  0  0  0  0
 15 51  1  0  0  0  0
 16 17  1  0  0  0  0
 16 22  2  0  0  0  0
 17 18  2  0  0  0  0
 17 52  1  0  0  0  0
 18 19  1  0  0  0  0
 18 53  1  0  0  0  0
 19 20  1  0  0  0  0
 19 21  2  0  0  0  0
 21 22  1  0  0  0  0
 21 54  1  0  0  0  0
 22 55  1  0  0  0  0
 23 24  1  0  0  0  0
 23 25  1  0  0  0  0
 25 56  1  0  0  0  0
 26 27  1  0  0  0  0
 27 28  2  0  0  0  0
 27 57  1  0  0  0  0
 28 29  1  0  0  0  0
 29 30  2  0  0  0  0
 30 31  1  0  0  0  0
 30 58  1  0  0  0  0
 31 32  1  0  0  0  0
 32 33  1  0  0  0  0
 33 34  1  0  0  0  0
 33 59  1  0  0  0  0
 33 60  1  0  0  0  0
 34 35  1  0  0  0  0
 34 61  1  0  0  0  0
 34 62  1  0  0  0  0
 35 36  1  0  0  0  0
 35 63  1  0  0  0  0
 35 64  1  0  0  0  0
 36 37  1  0  0  0  0
 36 42  1  0  0  0  0
 37 38  1  0  0  0  0
 37 65  1  0  0  0  0
 37 66  1  0  0  0  0
 38 39  1  0  0  0  0
 38 67  1  0  0  0  0
 38 68  1  0  0  0  0
 39 40  1  0  0  0  0
 39 41  1  0  0  0  0
 40 69  1  0  0  0  0
 40 70  1  0  0  0  0
 40 71  1  0  0  0  0
 41 42  1  0  0  0  0
 41 72  1  0  0  0  0
 41 73  1  0  0  0  0
 42 74  1  0  0  0  0
 42 75  1  0  0  0  0
M  END
$$$$
