CHEMBL4438721
 OpenBabel04072215383D

 52 54  0  0  0  0  0  0  0  0999 V2000
   -3.7147    4.4257    7.2467 C   0  0  0  0  0  0  0  0  0  0  0  0
   -3.6588    3.4766    6.1366 N   0  0  0  0  0  0  0  0  0  0  0  0
   -4.6440    2.3963    6.3188 C   0  0  0  0  0  0  0  0  0  0  0  0
   -4.5949    1.3726    5.1659 C   0  0  0  0  0  0  0  0  0  0  0  0
   -4.7669    2.0028    3.8389 N   0  0  0  0  0  0  0  0  0  0  0  0
   -5.4732    1.4234    2.7699 C   0  0  0  0  0  0  0  0  0  0  0  0
   -5.6844    2.1313    1.2560 S   0  0  0  0  0  0  0  0  0  0  0  0
   -6.3345   -0.0780    3.1324 S   0  0  0  0  0  0  0  0  0  0  0  0
   -5.6359   -1.2622    1.9435 C   0  0  0  0  0  0  0  0  0  0  0  0
   -6.1827   -2.6730    2.1743 C   0  0  0  0  0  0  0  0  0  0  0  0
   -5.4708   -3.6272    1.8682 O   0  0  0  0  0  0  0  0  0  0  0  0
   -7.4997   -2.7517    2.6355 N   0  0  0  0  0  0  0  0  0  0  0  0
   -8.1840   -3.9441    2.9838 C   0  0  0  0  0  0  0  0  0  0  0  0
   -7.4723   -5.1325    3.1767 C   0  0  0  0  0  0  0  0  0  0  0  0
   -8.1316   -6.3280    3.4231 C   0  0  0  0  0  0  0  0  0  0  0  0
   -9.5145   -6.3404    3.5432 C   0  0  0  0  0  0  0  0  0  0  0  0
  -10.2592   -5.1594    3.4644 C   0  0  0  0  0  0  0  0  0  0  0  0
  -11.6641   -5.1771    3.6922 N   0  0  0  0  0  0  0  0  0  0  0  0
  -12.3610   -6.2054    4.3296 C   0  0  0  0  0  0  0  0  0  0  0  0
  -11.8864   -7.2385    4.7890 O   0  0  0  0  0  0  0  0  0  0  0  0
  -13.8317   -5.9730    4.5153 C   0  0  0  0  0  0  0  0  0  0  0  0
  -14.6041   -6.9474    5.1543 C   0  0  0  0  0  0  0  0  0  0  0  0
  -15.9482   -6.6819    5.3877 C   0  0  0  0  0  0  0  0  0  0  0  0
  -16.4732   -5.4631    4.9772 C   0  0  0  0  0  0  0  0  0  0  0  0
  -15.6382   -4.5610    4.3362 C   0  0  0  0  0  0  0  0  0  0  0  0
  -14.3195   -4.7819    4.0882 N   0  0  0  0  0  0  0  0  0  0  0  0
   -9.5865   -3.9516    3.1588 C   0  0  0  0  0  0  0  0  0  0  0  0
   -3.8695    3.1683    3.6598 C   0  0  0  0  0  0  0  0  0  0  0  0
   -3.9173    4.1514    4.8505 C   0  0  0  0  0  0  0  0  0  0  0  0
   -3.4903    3.9215    8.1940 H   0  0  0  0  0  0  0  0  0  0  0  0
   -4.6951    4.9071    7.3378 H   0  0  0  0  0  0  0  0  0  0  0  0
   -2.9570    5.2073    7.1220 H   0  0  0  0  0  0  0  0  0  0  0  0
   -5.6591    2.8125    6.3860 H   0  0  0  0  0  0  0  0  0  0  0  0
   -4.4442    1.8660    7.2573 H   0  0  0  0  0  0  0  0  0  0  0  0
   -5.3516    0.6147    5.3698 H   0  0  0  0  0  0  0  0  0  0  0  0
   -3.6209    0.8683    5.1501 H   0  0  0  0  0  0  0  0  0  0  0  0
   -4.5440   -1.3155    2.0626 H   0  0  0  0  0  0  0  0  0  0  0  0
   -5.8598   -0.9936    0.9069 H   0  0  0  0  0  0  0  0  0  0  0  0
   -8.0185   -1.8824    2.6831 H   0  0  0  0  0  0  0  0  0  0  0  0
   -6.3910   -5.1658    3.1534 H   0  0  0  0  0  0  0  0  0  0  0  0
   -7.5645   -7.2463    3.5219 H   0  0  0  0  0  0  0  0  0  0  0  0
   -9.9826   -7.3078    3.6823 H   0  0  0  0  0  0  0  0  0  0  0  0
  -12.2087   -4.3422    3.4857 H   0  0  0  0  0  0  0  0  0  0  0  0
  -14.1661   -7.8873    5.4789 H   0  0  0  0  0  0  0  0  0  0  0  0
  -16.5775   -7.4103    5.8947 H   0  0  0  0  0  0  0  0  0  0  0  0
  -17.5114   -5.2134    5.1592 H   0  0  0  0  0  0  0  0  0  0  0  0
  -16.0115   -3.6034    3.9976 H   0  0  0  0  0  0  0  0  0  0  0  0
  -10.1556   -3.0326    3.0599 H   0  0  0  0  0  0  0  0  0  0  0  0
   -4.0875    3.7246    2.7460 H   0  0  0  0  0  0  0  0  0  0  0  0
   -2.8540    2.7649    3.5561 H   0  0  0  0  0  0  0  0  0  0  0  0
   -4.8987    4.6443    4.8691 H   0  0  0  0  0  0  0  0  0  0  0  0
   -3.1618    4.9294    4.6864 H   0  0  0  0  0  0  0  0  0  0  0  0
  1  2  1  0  0  0  0
  1 30  1  0  0  0  0
  1 31  1  0  0  0  0
  1 32  1  0  0  0  0
  2  3  1  0  0  0  0
  2 29  1  0  0  0  0
  3  4  1  0  0  0  0
  3 33  1  0  0  0  0
  3 34  1  0  0  0  0
  4  5  1  0  0  0  0
  4 35  1  0  0  0  0
  4 36  1  0  0  0  0
  5  6  1  0  0  0  0
  5 28  1  0  0  0  0
  6  7  2  0  0  0  0
  6  8  1  0  0  0  0
  8  9  1  0  0  0  0
  9 10  1  0  0  0  0
  9 37  1  0  0  0  0
  9 38  1  0  0  0  0
 10 11  2  0  0  0  0
 10 12  1  0  0  0  0
 12 13  1  0  0  0  0
 12 39  1  0  0  0  0
 13 14  1  0  0  0  0
 13 27  2  0  0  0  0
 14 15  2  0  0  0  0
 14 40  1  0  0  0  0
 15 16  1  0  0  0  0
 15 41  1  0  0  0  0
 16 17  2  0  0  0  0
 16 42  1  0  0  0  0
 17 18  1  0  0  0  0
 17 27  1  0  0  0  0
 18 19  1  0  0  0  0
 18 43  1  0  0  0  0
 19 20  2  0  0  0  0
 19 21  1  0  0  0  0
 21 22  1  0  0  0  0
 21 26  2  0  0  0  0
 22 23  2  0  0  0  0
 22 44  1  0  0  0  0
 23 24  1  0  0  0  0
 23 45  1  0  0  0  0
 24 25  2  0  0  0  0
 24 46  1  0  0  0  0
 25 26  1  0  0  0  0
 25 47  1  0  0  0  0
 27 48  1  0  0  0  0
 28 29  1  0  0  0  0
 28 49  1  0  0  0  0
 28 50  1  0  0  0  0
 29 51  1  0  0  0  0
 29 52  1  0  0  0  0
M  END
$$$$
