CHEMBL3906129
 OpenBabel04072215373D

 53 56  0  0  0  0  0  0  0  0999 V2000
    2.6141   -0.8572    0.9834 O   0  0  0  0  0  0  0  0  0  0  0  0
    2.2484   -0.5276   -0.1384 C   0  0  0  0  0  0  0  0  0  0  0  0
    0.9206   -0.3901   -0.5093 N   0  0  0  0  0  0  0  0  0  0  0  0
   -0.1906   -0.6191    0.3444 C   0  0  0  0  0  0  0  0  0  0  0  0
   -0.0895   -0.7527    1.7312 C   0  0  0  0  0  0  0  0  0  0  0  0
   -1.2109   -1.0396    2.5199 C   0  0  0  0  0  0  0  0  0  0  0  0
   -2.4644   -1.1407    1.9351 C   0  0  0  0  0  0  0  0  0  0  0  0
   -3.6350   -1.3928    2.5786 O   0  0  0  0  0  0  0  0  0  0  0  0
   -3.7801   -1.0313    3.9453 C   0  0  0  0  0  0  0  0  0  0  0  0
   -2.8390   -0.1763    4.3967 F   0  0  0  0  0  0  0  0  0  0  0  0
   -4.9819   -0.4282    4.0953 F   0  0  0  0  0  0  0  0  0  0  0  0
   -3.7702   -2.1424    4.7124 F   0  0  0  0  0  0  0  0  0  0  0  0
   -2.5741   -1.0107    0.5475 C   0  0  0  0  0  0  0  0  0  0  0  0
   -1.4520   -0.7400   -0.2446 C   0  0  0  0  0  0  0  0  0  0  0  0
    3.1128   -0.2778   -1.1967 N   0  0  0  0  0  0  0  0  0  0  0  0
    4.5189   -0.4207   -1.1672 C   0  0  0  0  0  0  0  0  0  0  0  0
    5.2280   -0.8380   -0.0340 C   0  0  0  0  0  0  0  0  0  0  0  0
    6.6187   -0.9652   -0.0520 C   0  0  0  0  0  0  0  0  0  0  0  0
    7.3270   -0.7588   -1.2329 C   0  0  0  0  0  0  0  0  0  0  0  0
    8.6899   -0.9519   -1.3411 O   0  0  0  0  0  0  0  0  0  0  0  0
    9.2742   -1.9750   -0.6112 C   0  0  0  0  0  0  0  0  0  0  0  0
    8.6316   -3.1842   -0.3506 C   0  0  0  0  0  0  0  0  0  0  0  0
    9.2756   -4.0879    0.4619 C   0  0  0  0  0  0  0  0  0  0  0  0
   10.5126   -3.8880    0.9474 N   0  0  0  0  0  0  0  0  0  0  0  0
   11.1709   -2.7642    0.6231 C   0  0  0  0  0  0  0  0  0  0  0  0
   12.4852   -2.5833    1.0826 N   0  0  0  0  0  0  0  0  0  0  0  0
   13.1527   -3.5041    1.8644 C   0  0  0  0  0  0  0  0  0  0  0  0
   12.7359   -4.5701    2.2866 O   0  0  0  0  0  0  0  0  0  0  0  0
   14.5614   -3.1080    2.1937 C   0  0  0  0  0  0  0  0  0  0  0  0
   15.6883   -4.0558    1.8490 C   0  0  0  0  0  0  0  0  0  0  0  0
   15.3060   -3.8468    3.2855 C   0  0  0  0  0  0  0  0  0  0  0  0
   10.5778   -1.7742   -0.1573 C   0  0  0  0  0  0  0  0  0  0  0  0
    6.6323   -0.3060   -2.3543 C   0  0  0  0  0  0  0  0  0  0  0  0
    7.2906   -0.0440   -3.4933 F   0  0  0  0  0  0  0  0  0  0  0  0
    5.2456   -0.1362   -2.3276 C   0  0  0  0  0  0  0  0  0  0  0  0
    0.7175   -0.2936   -1.4908 H   0  0  0  0  0  0  0  0  0  0  0  0
    0.8567   -0.6399    2.2518 H   0  0  0  0  0  0  0  0  0  0  0  0
   -1.0479   -1.1814    3.5844 H   0  0  0  0  0  0  0  0  0  0  0  0
   -3.5460   -1.1215    0.0720 H   0  0  0  0  0  0  0  0  0  0  0  0
   -1.5808   -0.6481   -1.3178 H   0  0  0  0  0  0  0  0  0  0  0  0
    2.7034    0.0641   -2.0604 H   0  0  0  0  0  0  0  0  0  0  0  0
    4.7354   -1.0883    0.8988 H   0  0  0  0  0  0  0  0  0  0  0  0
    7.1152   -1.2643    0.8665 H   0  0  0  0  0  0  0  0  0  0  0  0
    7.6413   -3.4147   -0.7220 H   0  0  0  0  0  0  0  0  0  0  0  0
    8.8065   -5.0194    0.7650 H   0  0  0  0  0  0  0  0  0  0  0  0
   12.9685   -1.7471    0.7941 H   0  0  0  0  0  0  0  0  0  0  0  0
   14.7788   -2.0478    2.1152 H   0  0  0  0  0  0  0  0  0  0  0  0
   16.6305   -3.6417    1.5138 H   0  0  0  0  0  0  0  0  0  0  0  0
   15.4363   -5.0123    1.3993 H   0  0  0  0  0  0  0  0  0  0  0  0
   15.9804   -3.2854    3.9201 H   0  0  0  0  0  0  0  0  0  0  0  0
   14.8003   -4.6620    3.7958 H   0  0  0  0  0  0  0  0  0  0  0  0
   11.1003   -0.8553   -0.4039 H   0  0  0  0  0  0  0  0  0  0  0  0
    4.7516    0.2091   -3.2345 H   0  0  0  0  0  0  0  0  0  0  0  0
  1  2  2  0  0  0  0
  2  3  1  0  0  0  0
  2 15  1  0  0  0  0
  3  4  1  0  0  0  0
  3 36  1  0  0  0  0
  4  5  1  0  0  0  0
  4 14  2  0  0  0  0
  5  6  2  0  0  0  0
  5 37  1  0  0  0  0
  6  7  1  0  0  0  0
  6 38  1  0  0  0  0
  7  8  1  0  0  0  0
  7 13  2  0  0  0  0
  8  9  1  0  0  0  0
  9 10  1  0  0  0  0
  9 11  1  0  0  0  0
  9 12  1  0  0  0  0
 13 14  1  0  0  0  0
 13 39  1  0  0  0  0
 14 40  1  0  0  0  0
 15 16  1  0  0  0  0
 15 41  1  0  0  0  0
 16 17  1  0  0  0  0
 16 35  2  0  0  0  0
 17 18  2  0  0  0  0
 17 42  1  0  0  0  0
 18 19  1  0  0  0  0
 18 43  1  0  0  0  0
 19 20  1  0  0  0  0
 19 33  2  0  0  0  0
 20 21  1  0  0  0  0
 21 22  1  0  0  0  0
 21 32  2  0  0  0  0
 22 23  2  0  0  0  0
 22 44  1  0  0  0  0
 23 24  1  0  0  0  0
 23 45  1  0  0  0  0
 24 25  2  0  0  0  0
 25 26  1  0  0  0  0
 25 32  1  0  0  0  0
 26 27  1  0  0  0  0
 26 46  1  0  0  0  0
 27 28  2  0  0  0  0
 27 29  1  0  0  0  0
 29 30  1  0  0  0  0
 29 31  1  0  0  0  0
 29 47  1  0  0  0  0
 30 31  1  0  0  0  0
 30 48  1  0  0  0  0
 30 49  1  0  0  0  0
 31 50  1  0  0  0  0
 31 51  1  0  0  0  0
 32 52  1  0  0  0  0
 33 34  1  0  0  0  0
 33 35  1  0  0  0  0
 35 53  1  0  0  0  0
M  END
$$$$
