CHEMBL3220318
 OpenBabel04072215363D

 78 80  0  0  0  0  0  0  0  0999 V2000
    0.0842    4.4823   -0.1370 C   0  0  0  0  0  0  0  0  0  0  0  0
    1.5626    4.1041   -0.0797 C   0  0  0  0  0  0  0  0  0  0  0  0
    2.1603    4.1481    1.2671 N   0  0  0  0  0  0  0  0  0  0  0  0
    1.4318    3.3497    2.2666 C   0  0  0  0  0  0  0  0  0  0  0  0
    1.4603    1.8364    2.0764 C   0  0  0  0  0  0  0  0  0  0  0  0
    3.6091    3.8460    1.1746 C   0  0  0  0  0  0  0  0  0  0  0  0
    4.3750    3.9358    2.5028 C   0  0  0  0  0  0  0  0  0  0  0  0
    5.7812    3.7085    2.2944 O   0  0  0  0  0  0  0  0  0  0  0  0
    6.5309    3.7139    3.4448 C   0  0  0  0  0  0  0  0  0  0  0  0
    6.0255    3.4442    4.7070 C   0  0  0  0  0  0  0  0  0  0  0  0
    6.8486    3.4998    5.8313 C   0  0  0  0  0  0  0  0  0  0  0  0
    8.2044    3.8180    5.7276 C   0  0  0  0  0  0  0  0  0  0  0  0
    9.0509    3.9228    6.8633 N   0  0  0  0  0  0  0  0  0  0  0  0
    8.6749    3.6237    8.1625 C   0  0  0  0  0  0  0  0  0  0  0  0
    7.5952    3.1402    8.4885 O   0  0  0  0  0  0  0  0  0  0  0  0
    9.6493    3.9592    9.0932 N   0  0  0  0  0  0  0  0  0  0  0  0
    9.4163    3.6845   10.4650 C   0  0  0  0  0  0  0  0  0  0  0  0
    8.8663    2.4671   10.8749 C   0  0  0  0  0  0  0  0  0  0  0  0
    8.4939    2.2421   12.2035 C   0  0  0  0  0  0  0  0  0  0  0  0
    7.9565    1.0539   12.6232 O   0  0  0  0  0  0  0  0  0  0  0  0
    7.8865   -0.0268   11.7019 C   0  0  0  0  0  0  0  0  0  0  0  0
    8.6615    3.2804   13.1436 C   0  0  0  0  0  0  0  0  0  0  0  0
    8.2087    3.2613   14.4448 O   0  0  0  0  0  0  0  0  0  0  0  0
    7.6442    2.0867   15.0049 C   0  0  0  0  0  0  0  0  0  0  0  0
    9.3111    4.4976   12.7600 C   0  0  0  0  0  0  0  0  0  0  0  0
    9.6024    5.5996   13.7209 C   0  0  0  0  0  0  0  0  0  0  0  0
    9.4866    6.9471   13.3590 C   0  0  0  0  0  0  0  0  0  0  0  0
    9.8188    7.9635   14.2590 C   0  0  0  0  0  0  0  0  0  0  0  0
   10.2018    7.6737   15.5804 C   0  0  0  0  0  0  0  0  0  0  0  0
   10.5786    8.8532   16.4292 C   0  0  0  0  0  0  0  0  0  0  0  0
   11.5550    8.6767   17.5741 C   0  0  0  0  0  0  0  0  0  0  0  0
   10.0918   10.0216   16.1051 N   0  0  0  0  0  0  0  0  0  0  0  0
   10.5740   11.0437   16.9268 O   0  0  0  0  0  0  0  0  0  0  0  0
   10.2234    6.3344   15.9947 C   0  0  0  0  0  0  0  0  0  0  0  0
   10.4248    6.0384   17.3157 O   0  0  0  0  0  0  0  0  0  0  0  0
    9.8755    4.8100   17.8031 C   0  0  0  0  0  0  0  0  0  0  0  0
   10.0223    5.3271   15.0354 C   0  0  0  0  0  0  0  0  0  0  0  0
    9.6942    4.6616   11.4108 C   0  0  0  0  0  0  0  0  0  0  0  0
    8.7281    4.0475    4.4527 C   0  0  0  0  0  0  0  0  0  0  0  0
    7.8961    3.9904    3.3168 C   0  0  0  0  0  0  0  0  0  0  0  0
   -0.2203    4.6357   -1.1779 H   0  0  0  0  0  0  0  0  0  0  0  0
   -0.1140    5.4099    0.4097 H   0  0  0  0  0  0  0  0  0  0  0  0
   -0.5517    3.6910    0.2726 H   0  0  0  0  0  0  0  0  0  0  0  0
    2.0972    4.8203   -0.7163 H   0  0  0  0  0  0  0  0  0  0  0  0
    1.6942    3.1166   -0.5384 H   0  0  0  0  0  0  0  0  0  0  0  0
    0.3871    3.6793    2.3112 H   0  0  0  0  0  0  0  0  0  0  0  0
    1.8100    3.5861    3.2687 H   0  0  0  0  0  0  0  0  0  0  0  0
    1.1851    1.5425    1.0599 H   0  0  0  0  0  0  0  0  0  0  0  0
    0.7436    1.3652    2.7577 H   0  0  0  0  0  0  0  0  0  0  0  0
    2.4486    1.4243    2.3012 H   0  0  0  0  0  0  0  0  0  0  0  0
    4.0780    4.5548    0.4795 H   0  0  0  0  0  0  0  0  0  0  0  0
    3.7728    2.8517    0.7391 H   0  0  0  0  0  0  0  0  0  0  0  0
    3.9730    3.1636    3.1627 H   0  0  0  0  0  0  0  0  0  0  0  0
    4.2344    4.9289    2.9480 H   0  0  0  0  0  0  0  0  0  0  0  0
    4.9912    3.1714    4.8843 H   0  0  0  0  0  0  0  0  0  0  0  0
    6.3637    3.2948    6.7776 H   0  0  0  0  0  0  0  0  0  0  0  0
   10.0258    4.1333    6.6962 H   0  0  0  0  0  0  0  0  0  0  0  0
   10.1548    4.8065    8.8784 H   0  0  0  0  0  0  0  0  0  0  0  0
    8.7027    1.7048   10.1199 H   0  0  0  0  0  0  0  0  0  0  0  0
    7.5376   -0.9073   12.2503 H   0  0  0  0  0  0  0  0  0  0  0  0
    8.8722   -0.2670   11.2896 H   0  0  0  0  0  0  0  0  0  0  0  0
    7.1606    0.1823   10.9100 H   0  0  0  0  0  0  0  0  0  0  0  0
    7.3919    2.3090   16.0470 H   0  0  0  0  0  0  0  0  0  0  0  0
    8.3706    1.2681   15.0212 H   0  0  0  0  0  0  0  0  0  0  0  0
    6.7104    1.8086   14.5070 H   0  0  0  0  0  0  0  0  0  0  0  0
    9.1491    7.2364   12.3672 H   0  0  0  0  0  0  0  0  0  0  0  0
    9.7691    8.9948   13.9145 H   0  0  0  0  0  0  0  0  0  0  0  0
   12.0725    7.7179   17.5478 H   0  0  0  0  0  0  0  0  0  0  0  0
   11.0206    8.7838   18.5226 H   0  0  0  0  0  0  0  0  0  0  0  0
   12.3320    9.4458   17.5161 H   0  0  0  0  0  0  0  0  0  0  0  0
   10.2320   11.8419   16.4830 H   0  0  0  0  0  0  0  0  0  0  0  0
   10.6886    4.0993   17.9811 H   0  0  0  0  0  0  0  0  0  0  0  0
    9.1185    4.3521   17.1577 H   0  0  0  0  0  0  0  0  0  0  0  0
    9.3824    5.0143   18.7585 H   0  0  0  0  0  0  0  0  0  0  0  0
   10.1829    4.2888   15.3147 H   0  0  0  0  0  0  0  0  0  0  0  0
   10.1584    5.5902   11.0907 H   0  0  0  0  0  0  0  0  0  0  0  0
    9.7783    4.2903    4.3154 H   0  0  0  0  0  0  0  0  0  0  0  0
    8.3149    4.1808    2.3320 H   0  0  0  0  0  0  0  0  0  0  0  0
  1  2  1  0  0  0  0
  1 41  1  0  0  0  0
  1 42  1  0  0  0  0
  1 43  1  0  0  0  0
  2  3  1  0  0  0  0
  2 44  1  0  0  0  0
  2 45  1  0  0  0  0
  3  4  1  0  0  0  0
  3  6  1  0  0  0  0
  4  5  1  0  0  0  0
  4 46  1  0  0  0  0
  4 47  1  0  0  0  0
  5 48  1  0  0  0  0
  5 49  1  0  0  0  0
  5 50  1  0  0  0  0
  6  7  1  0  0  0  0
  6 51  1  0  0  0  0
  6 52  1  0  0  0  0
  7  8  1  0  0  0  0
  7 53  1  0  0  0  0
  7 54  1  0  0  0  0
  8  9  1  0  0  0  0
  9 10  1  0  0  0  0
  9 40  2  0  0  0  0
 10 11  2  0  0  0  0
 10 55  1  0  0  0  0
 11 12  1  0  0  0  0
 11 56  1  0  0  0  0
 12 13  1  0  0  0  0
 12 39  2  0  0  0  0
 13 14  1  0  0  0  0
 13 57  1  0  0  0  0
 14 15  2  0  0  0  0
 14 16  1  0  0  0  0
 16 17  1  0  0  0  0
 16 58  1  0  0  0  0
 17 18  1  0  0  0  0
 17 38  2  0  0  0  0
 18 19  2  0  0  0  0
 18 59  1  0  0  0  0
 19 20  1  0  0  0  0
 19 22  1  0  0  0  0
 20 21  1  0  0  0  0
 21 60  1  0  0  0  0
 21 61  1  0  0  0  0
 21 62  1  0  0  0  0
 22 23  1  0  0  0  0
 22 25  2  0  0  0  0
 23 24  1  0  0  0  0
 24 63  1  0  0  0  0
 24 64  1  0  0  0  0
 24 65  1  0  0  0  0
 25 26  1  0  0  0  0
 25 38  1  0  0  0  0
 26 27  1  0  0  0  0
 26 37  2  0  0  0  0
 27 28  2  0  0  0  0
 27 66  1  0  0  0  0
 28 29  1  0  0  0  0
 28 67  1  0  0  0  0
 29 30  1  0  0  0  0
 29 34  2  0  0  0  0
 30 31  1  0  0  0  0
 30 32  2  0  0  0  0
 31 68  1  0  0  0  0
 31 69  1  0  0  0  0
 31 70  1  0  0  0  0
 32 33  1  0  0  0  0
 33 71  1  0  0  0  0
 34 35  1  0  0  0  0
 34 37  1  0  0  0  0
 35 36  1  0  0  0  0
 36 72  1  0  0  0  0
 36 73  1  0  0  0  0
 36 74  1  0  0  0  0
 37 75  1  0  0  0  0
 38 76  1  0  0  0  0
 39 40  1  0  0  0  0
 39 77  1  0  0  0  0
 40 78  1  0  0  0  0
M  END
$$$$
