CHEMBL536151
 OpenBabel04072215383D

 33 34  0  0  0  0  0  0  0  0999 V2000
    1.2115    0.6321    0.1505 O   0  0  0  0  0  0  0  0  0  0  0  0
    2.3271    0.1545   -0.0345 C   0  0  0  0  0  0  0  0  0  0  0  0
    2.8668   -0.1572   -1.2690 N   0  0  0  0  0  0  0  0  0  0  0  0
    2.2786    0.0749   -2.5279 C   0  0  0  0  0  0  0  0  0  0  0  0
    1.1781    0.9144   -2.7056 C   0  0  0  0  0  0  0  0  0  0  0  0
    0.6099    1.1139   -3.9710 C   0  0  0  0  0  0  0  0  0  0  0  0
   -0.5617    2.0504   -4.1460 C   0  0  0  0  0  0  0  0  0  0  0  0
   -0.9534    2.6709   -2.9990 F   0  0  0  0  0  0  0  0  0  0  0  0
   -0.2895    3.0491   -5.0320 F   0  0  0  0  0  0  0  0  0  0  0  0
   -1.6660    1.4166   -4.6264 F   0  0  0  0  0  0  0  0  0  0  0  0
    1.1564    0.4402   -5.0733 C   0  0  0  0  0  0  0  0  0  0  0  0
    2.2769   -0.3948   -4.9213 C   0  0  0  0  0  0  0  0  0  0  0  0
    2.8767   -1.1123   -6.1069 C   0  0  0  0  0  0  0  0  0  0  0  0
    2.2228   -0.8745   -7.2774 F   0  0  0  0  0  0  0  0  0  0  0  0
    4.1731   -0.7574   -6.3246 F   0  0  0  0  0  0  0  0  0  0  0  0
    2.8808   -2.4647   -5.9492 F   0  0  0  0  0  0  0  0  0  0  0  0
    2.8391   -0.5564   -3.6430 C   0  0  0  0  0  0  0  0  0  0  0  0
    3.1612   -0.1635    1.1668 C   0  0  0  0  0  0  0  0  0  0  0  0
    2.5455   -0.0110    2.4221 C   0  0  0  0  0  0  0  0  0  0  0  0
    3.2496   -0.2818    3.5909 C   0  0  0  0  0  0  0  0  0  0  0  0
    2.4812   -0.0904    5.1177 Cl  0  0  0  0  0  0  0  0  0  0  0  0
    4.5747   -0.7073    3.5323 C   0  0  0  0  0  0  0  0  0  0  0  0
    5.2025   -0.8572    2.2951 C   0  0  0  0  0  0  0  0  0  0  0  0
    4.5005   -0.5813    1.1185 C   0  0  0  0  0  0  0  0  0  0  0  0
    5.1476   -0.7275   -0.0814 O   0  0  0  0  0  0  0  0  0  0  0  0
    3.7595   -0.6459   -1.2517 H   0  0  0  0  0  0  0  0  0  0  0  0
    0.7520    1.4564   -1.8648 H   0  0  0  0  0  0  0  0  0  0  0  0
    0.7066    0.5756   -6.0579 H   0  0  0  0  0  0  0  0  0  0  0  0
    3.7036   -1.2057   -3.5230 H   0  0  0  0  0  0  0  0  0  0  0  0
    1.5093    0.3190    2.4854 H   0  0  0  0  0  0  0  0  0  0  0  0
    5.1197   -0.9247    4.4474 H   0  0  0  0  0  0  0  0  0  0  0  0
    6.2347   -1.1961    2.2706 H   0  0  0  0  0  0  0  0  0  0  0  0
    6.1051   -0.8030    0.0875 H   0  0  0  0  0  0  0  0  0  0  0  0
  1  2  2  0  0  0  0
  2  3  1  0  0  0  0
  2 18  1  0  0  0  0
  3  4  1  0  0  0  0
  3 26  1  0  0  0  0
  4  5  1  0  0  0  0
  4 17  2  0  0  0  0
  5  6  2  0  0  0  0
  5 27  1  0  0  0  0
  6  7  1  0  0  0  0
  6 11  1  0  0  0  0
  7  8  1  0  0  0  0
  7  9  1  0  0  0  0
  7 10  1  0  0  0  0
 11 12  2  0  0  0  0
 11 28  1  0  0  0  0
 12 13  1  0  0  0  0
 12 17  1  0  0  0  0
 13 14  1  0  0  0  0
 13 15  1  0  0  0  0
 13 16  1  0  0  0  0
 17 29  1  0  0  0  0
 18 19  1  0  0  0  0
 18 24  2  0  0  0  0
 19 20  2  0  0  0  0
 19 30  1  0  0  0  0
 20 21  1  0  0  0  0
 20 22  1  0  0  0  0
 22 23  2  0  0  0  0
 22 31  1  0  0  0  0
 23 24  1  0  0  0  0
 23 32  1  0  0  0  0
 24 25  1  0  0  0  0
 25 33  1  0  0  0  0
M  END
$$$$
