CHEMBL3671582
 OpenBabel04072215373D

 50 52  0  0  0  0  0  0  0  0999 V2000
    3.0589   -2.0528   -1.8544 C   0  0  0  0  0  0  0  0  0  0  0  0
    3.3265   -0.9417   -1.1576 C   0  0  0  0  0  0  0  0  0  0  0  0
    4.1722    0.1127   -1.7714 C   0  0  0  0  0  0  0  0  0  0  0  0
    4.4057    0.1250   -2.9754 O   0  0  0  0  0  0  0  0  0  0  0  0
    4.5882    1.0624   -0.8575 N   0  0  0  0  0  0  0  0  0  0  0  0
    5.2646    2.2276   -1.2786 C   0  0  0  0  0  0  0  0  0  0  0  0
    6.3538    2.0496   -2.1358 C   0  0  0  0  0  0  0  0  0  0  0  0
    6.9709    3.1360   -2.7813 C   0  0  0  0  0  0  0  0  0  0  0  0
    8.0385    3.0134   -3.6872 C   0  0  0  0  0  0  0  0  0  0  0  0
    8.6124    1.7337   -3.9185 N   0  0  0  0  0  0  0  0  0  0  0  0
    9.7994    1.4287   -4.6295 C   0  0  0  0  0  0  0  0  0  0  0  0
   10.8659    2.3354   -4.6984 C   0  0  0  0  0  0  0  0  0  0  0  0
   12.0193    2.0456   -5.4295 C   0  0  0  0  0  0  0  0  0  0  0  0
   12.1450    0.8133   -6.0593 C   0  0  0  0  0  0  0  0  0  0  0  0
   13.5494    0.4749   -6.9918 Cl  0  0  0  0  0  0  0  0  0  0  0  0
   11.1445   -0.1455   -5.9353 C   0  0  0  0  0  0  0  0  0  0  0  0
    9.9859    0.1595   -5.2143 C   0  0  0  0  0  0  0  0  0  0  0  0
    8.7685   -1.0639   -5.0736 Cl  0  0  0  0  0  0  0  0  0  0  0  0
    8.5471    4.0889   -4.3115 N   0  0  0  0  0  0  0  0  0  0  0  0
    8.0015    5.2735   -4.0275 C   0  0  0  0  0  0  0  0  0  0  0  0
    7.0084    5.4993   -3.1599 N   0  0  0  0  0  0  0  0  0  0  0  0
    6.5012    4.4301   -2.5418 C   0  0  0  0  0  0  0  0  0  0  0  0
    5.4711    4.6038   -1.6204 C   0  0  0  0  0  0  0  0  0  0  0  0
    4.8681    3.5299   -0.9477 C   0  0  0  0  0  0  0  0  0  0  0  0
    3.8540    3.9128   -0.1011 O   0  0  0  0  0  0  0  0  0  0  0  0
    3.7088    3.1078    1.0635 C   0  0  0  0  0  0  0  0  0  0  0  0
    3.3070    3.9300    2.2879 C   0  0  0  0  0  0  0  0  0  0  0  0
    3.1806    3.0912    3.4742 N   0  0  0  0  0  0  0  0  0  0  0  0
    4.2581    2.4057    3.9932 C   0  0  0  0  0  0  0  0  0  0  0  0
    3.9395    1.5373    5.1774 C   0  0  0  0  0  0  0  0  0  0  0  0
    5.3896    2.4543    3.5188 O   0  0  0  0  0  0  0  0  0  0  0  0
    2.4352   -2.8377   -1.4438 H   0  0  0  0  0  0  0  0  0  0  0  0
    3.4596   -2.2017   -2.8553 H   0  0  0  0  0  0  0  0  0  0  0  0
    2.9222   -0.7901   -0.1662 H   0  0  0  0  0  0  0  0  0  0  0  0
    4.1867    1.0302    0.0631 H   0  0  0  0  0  0  0  0  0  0  0  0
    6.7147    1.0370   -2.3082 H   0  0  0  0  0  0  0  0  0  0  0  0
    7.8835    1.0510   -4.1247 H   0  0  0  0  0  0  0  0  0  0  0  0
   10.8075    3.2951   -4.1919 H   0  0  0  0  0  0  0  0  0  0  0  0
   12.8045    2.7932   -5.5019 H   0  0  0  0  0  0  0  0  0  0  0  0
   11.2604   -1.1190   -6.4029 H   0  0  0  0  0  0  0  0  0  0  0  0
    8.4070    6.1337   -4.5502 H   0  0  0  0  0  0  0  0  0  0  0  0
    5.1139    5.6153   -1.4334 H   0  0  0  0  0  0  0  0  0  0  0  0
    4.6450    2.5922    1.2907 H   0  0  0  0  0  0  0  0  0  0  0  0
    2.9208    2.3697    0.8722 H   0  0  0  0  0  0  0  0  0  0  0  0
    2.3411    4.4179    2.1178 H   0  0  0  0  0  0  0  0  0  0  0  0
    4.0441    4.7151    2.4854 H   0  0  0  0  0  0  0  0  0  0  0  0
    2.3205    3.1361    4.0069 H   0  0  0  0  0  0  0  0  0  0  0  0
    2.8644    1.4834    5.3649 H   0  0  0  0  0  0  0  0  0  0  0  0
    4.4422    1.9370    6.0606 H   0  0  0  0  0  0  0  0  0  0  0  0
    4.3008    0.5240    4.9750 H   0  0  0  0  0  0  0  0  0  0  0  0
  1  2  2  0  0  0  0
  1 32  1  0  0  0  0
  1 33  1  0  0  0  0
  2  3  1  0  0  0  0
  2 34  1  0  0  0  0
  3  4  2  0  0  0  0
  3  5  1  0  0  0  0
  5  6  1  0  0  0  0
  5 35  1  0  0  0  0
  6  7  1  0  0  0  0
  6 24  2  0  0  0  0
  7  8  2  0  0  0  0
  7 36  1  0  0  0  0
  8  9  1  0  0  0  0
  8 22  1  0  0  0  0
  9 10  1  0  0  0  0
  9 19  2  0  0  0  0
 10 11  1  0  0  0  0
 10 37  1  0  0  0  0
 11 12  1  0  0  0  0
 11 17  2  0  0  0  0
 12 13  2  0  0  0  0
 12 38  1  0  0  0  0
 13 14  1  0  0  0  0
 13 39  1  0  0  0  0
 14 15  1  0  0  0  0
 14 16  2  0  0  0  0
 16 17  1  0  0  0  0
 16 40  1  0  0  0  0
 17 18  1  0  0  0  0
 19 20  1  0  0  0  0
 20 21  2  0  0  0  0
 20 41  1  0  0  0  0
 21 22  1  0  0  0  0
 22 23  2  0  0  0  0
 23 24  1  0  0  0  0
 23 42  1  0  0  0  0
 24 25  1  0  0  0  0
 25 26  1  0  0  0  0
 26 27  1  0  0  0  0
 26 43  1  0  0  0  0
 26 44  1  0  0  0  0
 27 28  1  0  0  0  0
 27 45  1  0  0  0  0
 27 46  1  0  0  0  0
 28 29  1  0  0  0  0
 28 47  1  0  0  0  0
 29 30  1  0  0  0  0
 29 31  2  0  0  0  0
 30 48  1  0  0  0  0
 30 49  1  0  0  0  0
 30 50  1  0  0  0  0
M  END
$$$$
