CHEMBL2386806
 OpenBabel04072215363D

 76 80  0  0  0  0  0  0  0  0999 V2000
    4.0145    3.9071   -4.1386 C   0  0  0  0  0  0  0  0  0  0  0  0
    3.7805    2.8581   -3.0962 C   0  0  0  0  0  0  0  0  0  0  0  0
    2.8163    3.1215   -2.2009 N   0  0  0  0  0  0  0  0  0  0  0  0
    2.6073    2.2215   -1.2214 C   0  0  0  0  0  0  0  0  0  0  0  0
    1.6645    2.4935   -0.2085 N   0  0  0  0  0  0  0  0  0  0  0  0
    0.9669    3.6449   -0.0834 C   0  0  0  0  0  0  0  0  0  0  0  0
    0.0824    4.0922    0.8651 C   0  0  0  0  0  0  0  0  0  0  0  0
   -0.2993    5.4065    0.4570 C   0  0  0  0  0  0  0  0  0  0  0  0
   -1.2130    6.3368    1.1272 C   0  0  0  0  0  0  0  0  0  0  0  0
   -1.7824    6.0261    2.3681 C   0  0  0  0  0  0  0  0  0  0  0  0
   -2.6773    6.9070    2.9839 C   0  0  0  0  0  0  0  0  0  0  0  0
   -3.0328    8.1110    2.3644 C   0  0  0  0  0  0  0  0  0  0  0  0
   -4.0269    9.0397    3.0089 C   0  0  0  0  0  0  0  0  0  0  0  0
   -3.3781    9.9387    3.9182 N   0  0  0  0  0  0  0  0  0  0  0  0
   -4.0381   10.8925    4.6264 C   0  0  0  0  0  0  0  0  0  0  0  0
   -5.2554   11.0501    4.5720 O   0  0  0  0  0  0  0  0  0  0  0  0
   -3.2896   11.6488    5.4816 N   0  0  0  0  0  0  0  0  0  0  0  0
   -1.9178   11.6321    5.6180 C   0  0  0  0  0  0  0  0  0  0  0  0
   -1.1981   12.2320    6.6744 C   0  0  0  0  0  0  0  0  0  0  0  0
    0.1148   11.8848    6.4424 C   0  0  0  0  0  0  0  0  0  0  0  0
    1.4183   12.0730    7.1609 C   0  0  0  0  0  0  0  0  0  0  0  0
    1.1905   12.7473    8.5260 C   0  0  0  0  0  0  0  0  0  0  0  0
    2.0819   10.7000    7.3946 C   0  0  0  0  0  0  0  0  0  0  0  0
    2.3530   12.9515    6.3119 C   0  0  0  0  0  0  0  0  0  0  0  0
    0.1800   11.1909    5.2739 O   0  0  0  0  0  0  0  0  0  0  0  0
   -1.0833   11.0227    4.7689 N   0  0  0  0  0  0  0  0  0  0  0  0
   -2.4259    8.4495    1.1498 C   0  0  0  0  0  0  0  0  0  0  0  0
   -1.5331    7.5674    0.5348 C   0  0  0  0  0  0  0  0  0  0  0  0
    0.3011    5.7306   -0.6998 N   0  0  0  0  0  0  0  0  0  0  0  0
    1.0595    4.6656   -0.9896 N   0  0  0  0  0  0  0  0  0  0  0  0
    3.3765    1.0897   -1.1361 C   0  0  0  0  0  0  0  0  0  0  0  0
    4.3641    0.8901   -2.0888 C   0  0  0  0  0  0  0  0  0  0  0  0
    5.1308   -0.2689   -1.9673 N   0  0  0  0  0  0  0  0  0  0  0  0
    5.8043   -0.7763   -3.1711 C   0  0  0  0  0  0  0  0  0  0  0  0
    6.2515   -2.2377   -2.8802 C   0  0  0  0  0  0  0  0  0  0  0  0
    7.1281   -2.3513   -1.6849 N   0  0  0  0  0  0  0  0  0  0  0  0
    7.4290   -3.7507   -1.3907 C   0  0  0  0  0  0  0  0  0  0  0  0
    6.4728   -1.7163   -0.5185 C   0  0  0  0  0  0  0  0  0  0  0  0
    6.0398   -0.2631   -0.8050 C   0  0  0  0  0  0  0  0  0  0  0  0
    4.5594    1.7620   -3.0903 N   0  0  0  0  0  0  0  0  0  0  0  0
    3.3155    4.7415   -4.0055 H   0  0  0  0  0  0  0  0  0  0  0  0
    3.8642    3.4929   -5.1382 H   0  0  0  0  0  0  0  0  0  0  0  0
    5.0301    4.3027   -4.0526 H   0  0  0  0  0  0  0  0  0  0  0  0
    1.4167    1.6920    0.3595 H   0  0  0  0  0  0  0  0  0  0  0  0
   -0.2302    3.5546    1.7470 H   0  0  0  0  0  0  0  0  0  0  0  0
   -1.5452    5.0967    2.8764 H   0  0  0  0  0  0  0  0  0  0  0  0
   -3.1016    6.6417    3.9496 H   0  0  0  0  0  0  0  0  0  0  0  0
   -4.7802    8.4693    3.5644 H   0  0  0  0  0  0  0  0  0  0  0  0
   -4.5619    9.6258    2.2536 H   0  0  0  0  0  0  0  0  0  0  0  0
   -2.3640    9.9286    3.9728 H   0  0  0  0  0  0  0  0  0  0  0  0
   -3.8257   12.2478    6.0923 H   0  0  0  0  0  0  0  0  0  0  0  0
   -1.5860   12.7793    7.5194 H   0  0  0  0  0  0  0  0  0  0  0  0
    0.5438   12.1337    9.1663 H   0  0  0  0  0  0  0  0  0  0  0  0
    0.7088   13.7238    8.4111 H   0  0  0  0  0  0  0  0  0  0  0  0
    2.1357   12.8982    9.0541 H   0  0  0  0  0  0  0  0  0  0  0  0
    1.4395   10.0451    7.9961 H   0  0  0  0  0  0  0  0  0  0  0  0
    3.0372   10.8065    7.9186 H   0  0  0  0  0  0  0  0  0  0  0  0
    2.2802   10.1792    6.4498 H   0  0  0  0  0  0  0  0  0  0  0  0
    1.9003   13.9297    6.1083 H   0  0  0  0  0  0  0  0  0  0  0  0
    2.5690   12.4859    5.3437 H   0  0  0  0  0  0  0  0  0  0  0  0
    3.3116   13.1210    6.8211 H   0  0  0  0  0  0  0  0  0  0  0  0
   -2.6489    9.3978    0.6663 H   0  0  0  0  0  0  0  0  0  0  0  0
   -1.0902    7.8455   -0.4206 H   0  0  0  0  0  0  0  0  0  0  0  0
    1.6314    4.6602   -1.8290 H   0  0  0  0  0  0  0  0  0  0  0  0
    3.2175    0.3598   -0.3547 H   0  0  0  0  0  0  0  0  0  0  0  0
    6.6758   -0.1600   -3.4289 H   0  0  0  0  0  0  0  0  0  0  0  0
    5.1219   -0.7839   -4.0293 H   0  0  0  0  0  0  0  0  0  0  0  0
    6.7765   -2.6280   -3.7592 H   0  0  0  0  0  0  0  0  0  0  0  0
    5.3493   -2.8494   -2.7357 H   0  0  0  0  0  0  0  0  0  0  0  0
    7.9499   -4.2179   -2.2327 H   0  0  0  0  0  0  0  0  0  0  0  0
    6.5268   -4.3345   -1.1738 H   0  0  0  0  0  0  0  0  0  0  0  0
    8.0976   -3.8221   -0.5253 H   0  0  0  0  0  0  0  0  0  0  0  0
    7.1594   -1.7131    0.3358 H   0  0  0  0  0  0  0  0  0  0  0  0
    5.5825   -2.2906   -0.2256 H   0  0  0  0  0  0  0  0  0  0  0  0
    6.9202    0.3612   -1.0120 H   0  0  0  0  0  0  0  0  0  0  0  0
    5.5594    0.1373    0.0952 H   0  0  0  0  0  0  0  0  0  0  0  0
  1  2  1  0  0  0  0
  1 41  1  0  0  0  0
  1 42  1  0  0  0  0
  1 43  1  0  0  0  0
  2  3  1  0  0  0  0
  2 40  2  0  0  0  0
  3  4  2  0  0  0  0
  4  5  1  0  0  0  0
  4 31  1  0  0  0  0
  5  6  1  0  0  0  0
  5 44  1  0  0  0  0
  6  7  2  0  0  0  0
  6 30  1  0  0  0  0
  7  8  1  0  0  0  0
  7 45  1  0  0  0  0
  8  9  1  0  0  0  0
  8 29  2  0  0  0  0
  9 10  1  0  0  0  0
  9 28  2  0  0  0  0
 10 11  2  0  0  0  0
 10 46  1  0  0  0  0
 11 12  1  0  0  0  0
 11 47  1  0  0  0  0
 12 13  1  0  0  0  0
 12 27  2  0  0  0  0
 13 14  1  0  0  0  0
 13 48  1  0  0  0  0
 13 49  1  0  0  0  0
 14 15  1  0  0  0  0
 14 50  1  0  0  0  0
 15 16  2  0  0  0  0
 15 17  1  0  0  0  0
 17 18  1  0  0  0  0
 17 51  1  0  0  0  0
 18 19  1  0  0  0  0
 18 26  2  0  0  0  0
 19 20  2  0  0  0  0
 19 52  1  0  0  0  0
 20 21  1  0  0  0  0
 20 25  1  0  0  0  0
 21 22  1  0  0  0  0
 21 23  1  0  0  0  0
 21 24  1  0  0  0  0
 22 53  1  0  0  0  0
 22 54  1  0  0  0  0
 22 55  1  0  0  0  0
 23 56  1  0  0  0  0
 23 57  1  0  0  0  0
 23 58  1  0  0  0  0
 24 59  1  0  0  0  0
 24 60  1  0  0  0  0
 24 61  1  0  0  0  0
 25 26  1  0  0  0  0
 27 28  1  0  0  0  0
 27 62  1  0  0  0  0
 28 63  1  0  0  0  0
 29 30  1  0  0  0  0
 30 64  1  0  0  0  0
 31 32  2  0  0  0  0
 31 65  1  0  0  0  0
 32 33  1  0  0  0  0
 32 40  1  0  0  0  0
 33 34  1  0  0  0  0
 33 39  1  0  0  0  0
 34 35  1  0  0  0  0
 34 66  1  0  0  0  0
 34 67  1  0  0  0  0
 35 36  1  0  0  0  0
 35 68  1  0  0  0  0
 35 69  1  0  0  0  0
 36 37  1  0  0  0  0
 36 38  1  0  0  0  0
 37 70  1  0  0  0  0
 37 71  1  0  0  0  0
 37 72  1  0  0  0  0
 38 39  1  0  0  0  0
 38 73  1  0  0  0  0
 38 74  1  0  0  0  0
 39 75  1  0  0  0  0
 39 76  1  0  0  0  0
M  END
$$$$
