CHEMBL1516890
 OpenBabel04072215363D

 34 37  0  0  0  0  0  0  0  0999 V2000
    2.3347    1.6206   -0.0387 C   0  0  0  0  0  0  0  0  0  0  0  0
    1.4896    0.4498   -0.0010 N   0  0  0  0  0  0  0  0  0  0  0  0
    1.9806   -0.8251    0.0197 C   0  0  0  0  0  0  0  0  0  0  0  0
    0.9303   -1.7084   -0.0174 C   0  0  0  0  0  0  0  0  0  0  0  0
    1.0543   -3.1364   -0.0203 C   0  0  0  0  0  0  0  0  0  0  0  0
    2.0259   -3.9311   -0.5188 C   0  0  0  0  0  0  0  0  0  0  0  0
    3.3233   -3.6507   -1.2586 C   0  0  0  0  0  0  0  0  0  0  0  0
    3.8347   -2.5911   -1.5906 O   0  0  0  0  0  0  0  0  0  0  0  0
    3.8937   -4.8854   -1.5206 N   0  0  0  0  0  0  0  0  0  0  0  0
    3.0979   -5.9092   -1.0397 C   0  0  0  0  0  0  0  0  0  0  0  0
    3.3194   -7.2650   -1.1113 C   0  0  0  0  0  0  0  0  0  0  0  0
    2.3418   -8.0779   -0.5421 C   0  0  0  0  0  0  0  0  0  0  0  0
    1.2190   -7.4870    0.0548 C   0  0  0  0  0  0  0  0  0  0  0  0
    0.9938   -6.1495    0.1306 N   0  0  0  0  0  0  0  0  0  0  0  0
    1.9591   -5.4024   -0.4282 C   0  0  0  0  0  0  0  0  0  0  0  0
   -0.2759   -0.9129   -0.0053 C   0  0  0  0  0  0  0  0  0  0  0  0
   -1.6639   -1.1909   -0.0180 C   0  0  0  0  0  0  0  0  0  0  0  0
   -2.5915   -0.1355   -0.0161 C   0  0  0  0  0  0  0  0  0  0  0  0
   -2.1655    1.1893    0.0031 C   0  0  0  0  0  0  0  0  0  0  0  0
   -0.8059    1.4968    0.0140 C   0  0  0  0  0  0  0  0  0  0  0  0
    0.1144    0.4356    0.0057 C   0  0  0  0  0  0  0  0  0  0  0  0
    3.3817    1.3069   -0.0281 H   0  0  0  0  0  0  0  0  0  0  0  0
    2.1288    2.2304    0.8451 H   0  0  0  0  0  0  0  0  0  0  0  0
    2.1286    2.1685   -0.9608 H   0  0  0  0  0  0  0  0  0  0  0  0
    3.0497   -0.9729    0.0409 H   0  0  0  0  0  0  0  0  0  0  0  0
    0.2188   -3.6520    0.4578 H   0  0  0  0  0  0  0  0  0  0  0  0
    4.7734   -4.9864   -2.0054 H   0  0  0  0  0  0  0  0  0  0  0  0
    4.2017   -7.6780   -1.5835 H   0  0  0  0  0  0  0  0  0  0  0  0
    2.4462   -9.1571   -0.5602 H   0  0  0  0  0  0  0  0  0  0  0  0
    0.4464   -8.1075    0.5021 H   0  0  0  0  0  0  0  0  0  0  0  0
   -2.0230   -2.2159   -0.0345 H   0  0  0  0  0  0  0  0  0  0  0  0
   -3.6568   -0.3518   -0.0289 H   0  0  0  0  0  0  0  0  0  0  0  0
   -2.8944    1.9961    0.0069 H   0  0  0  0  0  0  0  0  0  0  0  0
   -0.4733    2.5297    0.0273 H   0  0  0  0  0  0  0  0  0  0  0  0
  1  2  1  0  0  0  0
  1 22  1  0  0  0  0
  1 23  1  0  0  0  0
  1 24  1  0  0  0  0
  2  3  1  0  0  0  0
  2 21  1  0  0  0  0
  3  4  2  0  0  0  0
  3 25  1  0  0  0  0
  4  5  1  0  0  0  0
  4 16  1  0  0  0  0
  5  6  2  3  0  0  0
  5 26  1  0  0  0  0
  6  7  1  0  0  0  0
  6 15  1  0  0  0  0
  7  8  2  0  0  0  0
  7  9  1  0  0  0  0
  9 10  1  0  0  0  0
  9 27  1  0  0  0  0
 10 11  1  0  0  0  0
 10 15  2  0  0  0  0
 11 12  2  0  0  0  0
 11 28  1  0  0  0  0
 12 13  1  0  0  0  0
 12 29  1  0  0  0  0
 13 14  2  0  0  0  0
 13 30  1  0  0  0  0
 14 15  1  0  0  0  0
 16 17  1  0  0  0  0
 16 21  2  0  0  0  0
 17 18  2  0  0  0  0
 17 31  1  0  0  0  0
 18 19  1  0  0  0  0
 18 32  1  0  0  0  0
 19 20  2  0  0  0  0
 19 33  1  0  0  0  0
 20 21  1  0  0  0  0
 20 34  1  0  0  0  0
M  END
$$$$
