CHEMBL443906
 OpenBabel04072215383D

 37 41  0  0  0  0  0  0  0  0999 V2000
    1.1632    0.3074   -0.0165 C   0  0  0  0  0  0  0  0  0  0  0  0
    0.4687   -0.9011   -0.0482 C   0  0  0  0  0  0  0  0  0  0  0  0
   -0.9294   -0.9396   -0.0476 C   0  0  0  0  0  0  0  0  0  0  0  0
   -1.6666   -2.1356   -0.1190 N   0  0  0  0  0  0  0  0  0  0  0  0
   -1.2711   -3.4491   -0.4340 C   0  0  0  0  0  0  0  0  0  0  0  0
    0.0258   -3.8699   -0.3760 N   0  0  0  0  0  0  0  0  0  0  0  0
    0.3334   -5.1335   -0.7382 C   0  0  0  0  0  0  0  0  0  0  0  0
   -0.4965   -6.0970   -1.1810 N   0  0  0  0  0  0  0  0  0  0  0  0
   -1.7578   -5.6481   -1.2140 C   0  0  0  0  0  0  0  0  0  0  0  0
   -2.8591   -6.3378   -1.6269 N   0  0  0  0  0  0  0  0  0  0  0  0
   -3.9385   -5.5059   -1.4994 C   0  0  0  0  0  0  0  0  0  0  0  0
   -3.5947   -4.3197   -1.0414 N   0  0  0  0  0  0  0  0  0  0  0  0
   -2.2255   -4.3947   -0.8614 C   0  0  0  0  0  0  0  0  0  0  0  0
   -1.6167    0.2859    0.0411 C   0  0  0  0  0  0  0  0  0  0  0  0
   -0.9358    1.5212    0.0661 C   0  0  0  0  0  0  0  0  0  0  0  0
   -1.6986    2.7817    0.1175 C   0  0  0  0  0  0  0  0  0  0  0  0
   -2.8106    2.9677    0.8009 N   0  0  0  0  0  0  0  0  0  0  0  0
   -3.2820    4.2589    0.6078 C   0  0  0  0  0  0  0  0  0  0  0  0
   -4.4357    4.8220    1.1932 C   0  0  0  0  0  0  0  0  0  0  0  0
   -4.8142    6.1315    0.8711 C   0  0  0  0  0  0  0  0  0  0  0  0
   -4.0552    6.8876   -0.0162 C   0  0  0  0  0  0  0  0  0  0  0  0
   -2.8948    6.3620   -0.5899 C   0  0  0  0  0  0  0  0  0  0  0  0
   -2.5283    5.0458   -0.2630 C   0  0  0  0  0  0  0  0  0  0  0  0
   -1.1769    4.1398   -0.8082 S   0  0  0  0  0  0  0  0  0  0  0  0
    0.4669    1.5108    0.0355 C   0  0  0  0  0  0  0  0  0  0  0  0
    2.2494    0.3045   -0.0339 H   0  0  0  0  0  0  0  0  0  0  0  0
    1.0537   -1.8138   -0.0770 H   0  0  0  0  0  0  0  0  0  0  0  0
   -2.6677   -2.0195   -0.2494 H   0  0  0  0  0  0  0  0  0  0  0  0
    1.3833   -5.4027   -0.6675 H   0  0  0  0  0  0  0  0  0  0  0  0
   -2.8565   -7.2860   -1.9712 H   0  0  0  0  0  0  0  0  0  0  0  0
   -4.9412   -5.8195   -1.7599 H   0  0  0  0  0  0  0  0  0  0  0  0
   -2.7049    0.2920    0.0691 H   0  0  0  0  0  0  0  0  0  0  0  0
   -5.0283    4.2315    1.8850 H   0  0  0  0  0  0  0  0  0  0  0  0
   -5.7114    6.5574    1.3147 H   0  0  0  0  0  0  0  0  0  0  0  0
   -4.3651    7.8998   -0.2682 H   0  0  0  0  0  0  0  0  0  0  0  0
   -2.2969    6.9527   -1.2772 H   0  0  0  0  0  0  0  0  0  0  0  0
    1.0352    2.4363    0.0620 H   0  0  0  0  0  0  0  0  0  0  0  0
  1  2  1  0  0  0  0
  1 25  2  0  0  0  0
  1 26  1  0  0  0  0
  2  3  2  0  0  0  0
  2 27  1  0  0  0  0
  3  4  1  0  0  0  0
  3 14  1  0  0  0  0
  4  5  1  0  0  0  0
  4 28  1  0  0  0  0
  5  6  1  0  0  0  0
  5 13  2  0  0  0  0
  6  7  2  0  0  0  0
  7  8  1  0  0  0  0
  7 29  1  0  0  0  0
  8  9  2  0  0  0  0
  9 10  1  0  0  0  0
  9 13  1  0  0  0  0
 10 11  1  0  0  0  0
 10 30  1  0  0  0  0
 11 12  2  0  0  0  0
 11 31  1  0  0  0  0
 12 13  1  0  0  0  0
 14 15  2  0  0  0  0
 14 32  1  0  0  0  0
 15 16  1  0  0  0  0
 15 25  1  0  0  0  0
 16 17  2  0  0  0  0
 16 24  1  0  0  0  0
 17 18  1  0  0  0  0
 18 19  1  0  0  0  0
 18 23  2  0  0  0  0
 19 20  2  0  0  0  0
 19 33  1  0  0  0  0
 20 21  1  0  0  0  0
 20 34  1  0  0  0  0
 21 22  2  0  0  0  0
 21 35  1  0  0  0  0
 22 23  1  0  0  0  0
 22 36  1  0  0  0  0
 23 24  1  0  0  0  0
 25 37  1  0  0  0  0
M  END
$$$$
