CHEMBL3960801
 OpenBabel04072215373D

 54 58  0  0  0  0  0  0  0  0999 V2000
   -0.1840   -1.0624   -1.7722 O   0  0  0  0  0  0  0  0  0  0  0  0
    0.9326   -0.7672   -1.3620 C   0  0  0  0  0  0  0  0  0  0  0  0
    1.6282    0.4008   -1.6187 N   0  0  0  0  0  0  0  0  0  0  0  0
    1.1611    1.4978   -2.3760 C   0  0  0  0  0  0  0  0  0  0  0  0
   -0.1683    1.6538   -2.7668 C   0  0  0  0  0  0  0  0  0  0  0  0
   -0.5469    2.7215   -3.5826 C   0  0  0  0  0  0  0  0  0  0  0  0
    0.3965    3.6626   -3.9919 C   0  0  0  0  0  0  0  0  0  0  0  0
    1.7178    3.5651   -3.5516 C   0  0  0  0  0  0  0  0  0  0  0  0
    2.9949    4.7316   -3.9796 S   0  0  0  0  0  0  0  0  0  0  0  0
    2.1280    6.2451   -4.3581 C   0  0  0  0  0  0  0  0  0  0  0  0
    1.6517    7.1003   -3.3527 C   0  0  0  0  0  0  0  0  0  0  0  0
    1.0142    8.3241   -3.6697 C   0  0  0  0  0  0  0  0  0  0  0  0
    1.0077    8.7369   -5.0207 C   0  0  0  0  0  0  0  0  0  0  0  0
    0.5609    9.8433   -5.8359 C   0  0  0  0  0  0  0  0  0  0  0  0
   -0.7139    9.9542   -6.5491 C   0  0  0  0  0  0  0  0  0  0  0  0
   -1.5532    8.9122   -6.7441 C   0  0  0  0  0  0  0  0  0  0  0  0
   -2.1744    8.5999   -8.0451 C   0  0  0  0  0  0  0  0  0  0  0  0
   -1.4626    8.7515   -9.2542 C   0  0  0  0  0  0  0  0  0  0  0  0
   -1.9418    8.2045  -10.4514 C   0  0  0  0  0  0  0  0  0  0  0  0
   -3.1428    7.5000  -10.4623 C   0  0  0  0  0  0  0  0  0  0  0  0
   -3.8668    7.3592   -9.2824 C   0  0  0  0  0  0  0  0  0  0  0  0
   -3.3858    7.9028   -8.0792 C   0  0  0  0  0  0  0  0  0  0  0  0
    1.6026   10.0968   -6.6588 N   0  0  0  0  0  0  0  0  0  0  0  0
    2.0337    8.8449   -6.9260 N   0  0  0  0  0  0  0  0  0  0  0  0
    1.7208    7.9627   -5.9257 C   0  0  0  0  0  0  0  0  0  0  0  0
    2.1198    6.6521   -5.6952 C   0  0  0  0  0  0  0  0  0  0  0  0
    2.0932    2.4707   -2.7558 C   0  0  0  0  0  0  0  0  0  0  0  0
    1.6690   -1.7792   -0.5593 C   0  0  0  0  0  0  0  0  0  0  0  0
    1.4912   -3.1316   -0.8780 C   0  0  0  0  0  0  0  0  0  0  0  0
    2.1517   -4.1161   -0.1445 C   0  0  0  0  0  0  0  0  0  0  0  0
    2.9824   -3.7525    0.9148 C   0  0  0  0  0  0  0  0  0  0  0  0
    3.1505   -2.4067    1.2457 C   0  0  0  0  0  0  0  0  0  0  0  0
    2.4936   -1.4162    0.5122 C   0  0  0  0  0  0  0  0  0  0  0  0
    2.6076    0.4205   -1.3630 H   0  0  0  0  0  0  0  0  0  0  0  0
   -0.9390    0.9563   -2.4538 H   0  0  0  0  0  0  0  0  0  0  0  0
   -1.5828    2.8108   -3.9013 H   0  0  0  0  0  0  0  0  0  0  0  0
    0.0764    4.4632   -4.6529 H   0  0  0  0  0  0  0  0  0  0  0  0
    1.8094    6.8378   -2.3067 H   0  0  0  0  0  0  0  0  0  0  0  0
    0.6751    8.9815   -2.8719 H   0  0  0  0  0  0  0  0  0  0  0  0
   -0.7190   10.7555   -7.2912 H   0  0  0  0  0  0  0  0  0  0  0  0
   -1.5502    8.0641   -6.0507 H   0  0  0  0  0  0  0  0  0  0  0  0
   -0.4940    9.2475   -9.2714 H   0  0  0  0  0  0  0  0  0  0  0  0
   -1.3625    8.2974  -11.3678 H   0  0  0  0  0  0  0  0  0  0  0  0
   -3.5025    7.0492  -11.3830 H   0  0  0  0  0  0  0  0  0  0  0  0
   -4.7983    6.7906   -9.2861 H   0  0  0  0  0  0  0  0  0  0  0  0
   -3.9523    7.7362   -7.1685 H   0  0  0  0  0  0  0  0  0  0  0  0
    2.6490    8.7069   -7.7165 H   0  0  0  0  0  0  0  0  0  0  0  0
    2.5458    6.0433   -6.4830 H   0  0  0  0  0  0  0  0  0  0  0  0
    3.1332    2.3714   -2.4524 H   0  0  0  0  0  0  0  0  0  0  0  0
    0.8355   -3.4164   -1.6988 H   0  0  0  0  0  0  0  0  0  0  0  0
    2.0110   -5.1639   -0.3957 H   0  0  0  0  0  0  0  0  0  0  0  0
    3.4891   -4.5221    1.4921 H   0  0  0  0  0  0  0  0  0  0  0  0
    3.7827   -2.1327    2.0869 H   0  0  0  0  0  0  0  0  0  0  0  0
    2.6054   -0.3764    0.8079 H   0  0  0  0  0  0  0  0  0  0  0  0
  1  2  2  0  0  0  0
  2  3  1  0  0  0  0
  2 28  1  0  0  0  0
  3  4  1  0  0  0  0
  3 34  1  0  0  0  0
  4  5  1  0  0  0  0
  4 27  2  0  0  0  0
  5  6  2  0  0  0  0
  5 35  1  0  0  0  0
  6  7  1  0  0  0  0
  6 36  1  0  0  0  0
  7  8  2  0  0  0  0
  7 37  1  0  0  0  0
  8  9  1  0  0  0  0
  8 27  1  0  0  0  0
  9 10  1  0  0  0  0
 10 11  1  0  0  0  0
 10 26  2  0  0  0  0
 11 12  2  0  0  0  0
 11 38  1  0  0  0  0
 12 13  1  0  0  0  0
 12 39  1  0  0  0  0
 13 14  1  0  0  0  0
 13 25  2  0  0  0  0
 14 15  1  0  0  0  0
 14 23  2  0  0  0  0
 15 16  2  0  0  0  0
 15 40  1  0  0  0  0
 16 17  1  0  0  0  0
 16 41  1  0  0  0  0
 17 18  1  0  0  0  0
 17 22  2  0  0  0  0
 18 19  2  0  0  0  0
 18 42  1  0  0  0  0
 19 20  1  0  0  0  0
 19 43  1  0  0  0  0
 20 21  2  0  0  0  0
 20 44  1  0  0  0  0
 21 22  1  0  0  0  0
 21 45  1  0  0  0  0
 22 46  1  0  0  0  0
 23 24  1  0  0  0  0
 24 25  1  0  0  0  0
 24 47  1  0  0  0  0
 25 26  1  0  0  0  0
 26 48  1  0  0  0  0
 27 49  1  0  0  0  0
 28 29  1  0  0  0  0
 28 33  2  0  0  0  0
 29 30  2  0  0  0  0
 29 50  1  0  0  0  0
 30 31  1  0  0  0  0
 30 51  1  0  0  0  0
 31 32  2  0  0  0  0
 31 52  1  0  0  0  0
 32 33  1  0  0  0  0
 32 53  1  0  0  0  0
 33 54  1  0  0  0  0
M  END
$$$$
