CHEMBL3946674
 OpenBabel04072215373D

 68 70  0  0  0  0  0  0  0  0999 V2000
    2.9091    1.6046    2.3078 C   0  0  0  0  0  0  0  0  0  0  0  0
    3.5513    1.1046    1.1962 O   0  0  0  0  0  0  0  0  0  0  0  0
    3.6843    1.7885    0.0343 C   0  0  0  0  0  0  0  0  0  0  0  0
    2.7280    2.7051   -0.4237 C   0  0  0  0  0  0  0  0  0  0  0  0
    2.9449    3.4332   -1.5979 C   0  0  0  0  0  0  0  0  0  0  0  0
    1.9486    4.2680   -2.0014 O   0  0  0  0  0  0  0  0  0  0  0  0
    1.8928    4.9690   -3.1881 C   0  0  0  0  0  0  0  0  0  0  0  0
    0.6343    5.8333   -3.2246 C   0  0  0  0  0  0  0  0  0  0  0  0
    0.6438    6.7325   -2.1731 F   0  0  0  0  0  0  0  0  0  0  0  0
    4.1758    3.2789   -2.2973 C   0  0  0  0  0  0  0  0  0  0  0  0
    5.1473    2.3575   -1.8361 C   0  0  0  0  0  0  0  0  0  0  0  0
    6.3885    2.1358   -2.5314 N   0  0  0  0  0  0  0  0  0  0  0  0
    6.8681    0.7135   -2.6780 C   0  0  0  0  0  0  0  0  0  0  0  0
    5.9222   -0.2307   -3.5042 C   0  0  0  0  0  0  0  0  0  0  0  0
    6.5184   -1.5888   -3.7057 N   0  0  0  0  0  0  0  0  0  0  0  0
    5.5769   -2.5917   -4.2850 C   0  0  0  0  0  0  0  0  0  0  0  0
    5.1137   -2.2134   -5.7011 C   0  0  0  0  0  0  0  0  0  0  0  0
    6.2242   -3.9952   -4.3617 C   0  0  0  0  0  0  0  0  0  0  0  0
    7.2448    3.1895   -3.1037 C   0  0  0  0  0  0  0  0  0  0  0  0
    7.7159    2.8550   -4.3584 C   0  0  0  0  0  0  0  0  0  0  0  0
    8.7160    3.5298   -4.9510 C   0  0  0  0  0  0  0  0  0  0  0  0
    9.2940    4.6083   -4.3605 C   0  0  0  0  0  0  0  0  0  0  0  0
   10.3685    5.0462   -4.9825 N   0  0  0  0  0  0  0  0  0  0  0  0
   11.0578    6.0901   -4.5858 C   0  0  0  0  0  0  0  0  0  0  0  0
   10.6384    6.8886   -3.5174 C   0  0  0  0  0  0  0  0  0  0  0  0
   11.4573    8.2255   -3.4866 C   0  0  0  0  0  0  0  0  0  0  0  0
   12.3044    8.5881   -4.5809 C   0  0  0  0  0  0  0  0  0  0  0  0
   12.8500    9.7791   -4.4121 N   0  0  0  0  0  0  0  0  0  0  0  0
   12.4336   10.2721   -3.2747 N   0  0  0  0  0  0  0  0  0  0  0  0
   12.8750   11.6109   -2.8962 C   0  0  0  0  0  0  0  0  0  0  0  0
   11.5948    9.3709   -2.6512 C   0  0  0  0  0  0  0  0  0  0  0  0
    9.5351    6.3866   -2.7673 N   0  0  0  0  0  0  0  0  0  0  0  0
    8.8532    5.1971   -3.1549 C   0  0  0  0  0  0  0  0  0  0  0  0
    7.7635    4.4410   -2.4803 C   0  0  0  0  0  0  0  0  0  0  0  0
    4.8494    1.5932   -0.6955 C   0  0  0  0  0  0  0  0  0  0  0  0
   -0.9864    0.0690    1.6876 Cl  0  0  0  0  0  0  0  0  0  0  0  0
    3.0298    0.8927    3.1489 H   0  0  0  0  0  0  0  0  0  0  0  0
    1.8328    1.7728    2.1171 H   0  0  0  0  0  0  0  0  0  0  0  0
    3.3876    2.5666    2.5960 H   0  0  0  0  0  0  0  0  0  0  0  0
    1.8030    2.8526    0.1207 H   0  0  0  0  0  0  0  0  0  0  0  0
    1.8663    4.2571   -4.0419 H   0  0  0  0  0  0  0  0  0  0  0  0
    2.7797    5.6293   -3.2744 H   0  0  0  0  0  0  0  0  0  0  0  0
   -0.2789    5.2036   -3.1561 H   0  0  0  0  0  0  0  0  0  0  0  0
    0.6018    6.3998   -4.1797 H   0  0  0  0  0  0  0  0  0  0  0  0
    4.3589    3.8356   -3.2033 H   0  0  0  0  0  0  0  0  0  0  0  0
    7.0596    0.2612   -1.6865 H   0  0  0  0  0  0  0  0  0  0  0  0
    7.8605    0.6783   -3.1755 H   0  0  0  0  0  0  0  0  0  0  0  0
    5.7491    0.2245   -4.4974 H   0  0  0  0  0  0  0  0  0  0  0  0
    4.9503   -0.3298   -2.9756 H   0  0  0  0  0  0  0  0  0  0  0  0
    6.8232   -1.9553   -2.7733 H   0  0  0  0  0  0  0  0  0  0  0  0
    4.6834   -2.6830   -3.6289 H   0  0  0  0  0  0  0  0  0  0  0  0
    5.9818   -2.1360   -6.3905 H   0  0  0  0  0  0  0  0  0  0  0  0
    4.5528   -1.2603   -5.6992 H   0  0  0  0  0  0  0  0  0  0  0  0
    4.4236   -2.9935   -6.0957 H   0  0  0  0  0  0  0  0  0  0  0  0
    7.1126   -4.0003   -5.0302 H   0  0  0  0  0  0  0  0  0  0  0  0
    5.4935   -4.7328   -4.7705 H   0  0  0  0  0  0  0  0  0  0  0  0
    6.5267   -4.3599   -3.3586 H   0  0  0  0  0  0  0  0  0  0  0  0
    7.3475    1.9899   -4.8859 H   0  0  0  0  0  0  0  0  0  0  0  0
    9.0945    3.1764   -5.8962 H   0  0  0  0  0  0  0  0  0  0  0  0
   11.9147    6.2513   -5.1834 H   0  0  0  0  0  0  0  0  0  0  0  0
   12.5157    8.0837   -5.5003 H   0  0  0  0  0  0  0  0  0  0  0  0
   13.5283   12.0361   -3.7039 H   0  0  0  0  0  0  0  0  0  0  0  0
   13.4835   11.6043   -1.9686 H   0  0  0  0  0  0  0  0  0  0  0  0
   12.0069   12.2907   -2.8097 H   0  0  0  0  0  0  0  0  0  0  0  0
   11.1243    9.5714   -1.7012 H   0  0  0  0  0  0  0  0  0  0  0  0
    7.4088    4.7500   -1.4971 H   0  0  0  0  0  0  0  0  0  0  0  0
    5.5514    0.8669   -0.3117 H   0  0  0  0  0  0  0  0  0  0  0  0
    0.3643    0.0129    1.9285 H   0  0  0  0  0  0  0  0  0  0  0  0
  1  2  1  0  0  0  0
  1 37  1  0  0  0  0
  1 38  1  0  0  0  0
  1 39  1  0  0  0  0
  2  3  1  0  0  0  0
  3  4  1  0  0  0  0
  3 35  2  0  0  0  0
  4  5  2  0  0  0  0
  4 40  1  0  0  0  0
  5  6  1  0  0  0  0
  5 10  1  0  0  0  0
  6  7  1  0  0  0  0
  7  8  1  0  0  0  0
  7 41  1  0  0  0  0
  7 42  1  0  0  0  0
  8  9  1  0  0  0  0
  8 43  1  0  0  0  0
  8 44  1  0  0  0  0
 10 11  2  0  0  0  0
 10 45  1  0  0  0  0
 11 12  1  0  0  0  0
 11 35  1  0  0  0  0
 12 13  1  0  0  0  0
 12 19  1  0  0  0  0
 13 14  1  0  0  0  0
 13 46  1  0  0  0  0
 13 47  1  0  0  0  0
 14 15  1  0  0  0  0
 14 48  1  0  0  0  0
 14 49  1  0  0  0  0
 15 16  1  0  0  0  0
 15 50  1  0  0  0  0
 16 17  1  0  0  0  0
 16 18  1  0  0  0  0
 16 51  1  0  0  0  0
 17 52  1  0  0  0  0
 17 53  1  0  0  0  0
 17 54  1  0  0  0  0
 18 55  1  0  0  0  0
 18 56  1  0  0  0  0
 18 57  1  0  0  0  0
 19 20  1  0  0  0  0
 19 34  2  0  0  0  0
 20 21  2  0  0  0  0
 20 58  1  0  0  0  0
 21 22  1  0  0  0  0
 21 59  1  0  0  0  0
 22 23  1  0  0  0  0
 22 33  2  0  0  0  0
 23 24  2  0  0  0  0
 24 25  1  0  0  0  0
 24 60  1  0  0  0  0
 25 26  1  0  0  0  0
 25 32  2  0  0  0  0
 26 27  1  0  0  0  0
 26 31  2  0  0  0  0
 27 28  2  0  0  0  0
 27 61  1  0  0  0  0
 28 29  1  0  0  0  0
 29 30  1  0  0  0  0
 29 31  1  0  0  0  0
 30 62  1  0  0  0  0
 30 63  1  0  0  0  0
 30 64  1  0  0  0  0
 31 65  1  0  0  0  0
 32 33  1  0  0  0  0
 33 34  1  0  0  0  0
 34 66  1  0  0  0  0
 35 67  1  0  0  0  0
 36 68  1  0  0  0  0
M  END
$$$$
