CHEMBL4531086
 OpenBabel04072215383D

 50 53  0  0  0  0  0  0  0  0999 V2000
    2.3419   -0.4454    1.6330 C   0  0  0  0  0  0  0  0  0  0  0  0
    0.8461   -0.3339    1.5628 C   0  0  0  0  0  0  0  0  0  0  0  0
    0.2336    0.8643    1.9461 C   0  0  0  0  0  0  0  0  0  0  0  0
   -1.1458    0.9864    1.8909 C   0  0  0  0  0  0  0  0  0  0  0  0
   -1.9233   -0.0879    1.4607 C   0  0  0  0  0  0  0  0  0  0  0  0
   -1.3478   -1.3006    1.0617 C   0  0  0  0  0  0  0  0  0  0  0  0
   -2.1221   -2.4175    0.6291 N   0  0  0  0  0  0  0  0  0  0  0  0
   -3.4908   -2.3949    0.4182 C   0  0  0  0  0  0  0  0  0  0  0  0
   -4.1854   -1.3828    0.4794 O   0  0  0  0  0  0  0  0  0  0  0  0
   -4.0395   -3.6509    0.1652 N   0  0  0  0  0  0  0  0  0  0  0  0
   -5.4443   -3.7465   -0.0515 C   0  0  0  0  0  0  0  0  0  0  0  0
   -6.0918   -2.8386   -0.8932 C   0  0  0  0  0  0  0  0  0  0  0  0
   -7.4832   -2.8200   -0.9902 C   0  0  0  0  0  0  0  0  0  0  0  0
   -8.2700   -3.7457   -0.2958 C   0  0  0  0  0  0  0  0  0  0  0  0
   -9.6897   -3.7359   -0.3962 N   0  0  0  0  0  0  0  0  0  0  0  0
  -10.4237   -3.3308   -1.5541 C   0  0  0  0  0  0  0  0  0  0  0  0
   -9.8817   -3.6231   -2.8198 C   0  0  0  0  0  0  0  0  0  0  0  0
  -10.4945   -3.1724   -3.9748 C   0  0  0  0  0  0  0  0  0  0  0  0
  -11.7172   -2.5113   -3.8588 C   0  0  0  0  0  0  0  0  0  0  0  0
  -12.2766   -1.9345   -5.0605 N   0  3  0  0  0  0  0  0  0  0  0  0
  -12.5498   -2.7161   -5.9826 O   0  0  0  0  0  0  0  0  0  0  0  0
  -12.3492   -0.6990   -5.1163 O   0  5  0  0  0  0  0  0  0  0  0  0
  -12.4002   -2.3449   -2.6582 C   0  0  0  0  0  0  0  0  0  0  0  0
  -13.6576   -1.8540   -2.6434 N   0  0  0  0  0  0  0  0  0  0  0  0
  -14.2608   -1.6890   -1.4633 C   0  0  0  0  0  0  0  0  0  0  0  0
  -13.7018   -1.9154   -0.2767 N   0  0  0  0  0  0  0  0  0  0  0  0
  -12.4580   -2.4132   -0.3313 C   0  0  0  0  0  0  0  0  0  0  0  0
  -11.9207   -2.5612    0.9117 O   0  0  0  0  0  0  0  0  0  0  0  0
  -11.7270   -2.7221   -1.4826 C   0  0  0  0  0  0  0  0  0  0  0  0
   -7.6180   -4.6603    0.5434 C   0  0  0  0  0  0  0  0  0  0  0  0
   -6.2108   -4.6858    0.6406 C   0  0  0  0  0  0  0  0  0  0  0  0
    0.0504   -1.4130    1.1189 C   0  0  0  0  0  0  0  0  0  0  0  0
    2.7907    0.4773    2.0211 H   0  0  0  0  0  0  0  0  0  0  0  0
    2.7580   -0.6203    0.6367 H   0  0  0  0  0  0  0  0  0  0  0  0
    2.6332   -1.2586    2.3043 H   0  0  0  0  0  0  0  0  0  0  0  0
    0.8234    1.7104    2.2916 H   0  0  0  0  0  0  0  0  0  0  0  0
   -1.6307    1.9137    2.1844 H   0  0  0  0  0  0  0  0  0  0  0  0
   -2.9942    0.0760    1.4560 H   0  0  0  0  0  0  0  0  0  0  0  0
   -1.6206   -3.2379    0.3206 H   0  0  0  0  0  0  0  0  0  0  0  0
   -3.6034   -4.4148    0.6605 H   0  0  0  0  0  0  0  0  0  0  0  0
   -5.5225   -2.1044   -1.4593 H   0  0  0  0  0  0  0  0  0  0  0  0
   -7.9393   -2.0547   -1.6120 H   0  0  0  0  0  0  0  0  0  0  0  0
  -10.1108   -3.3646    0.4613 H   0  0  0  0  0  0  0  0  0  0  0  0
   -8.9465   -4.1745   -2.9021 H   0  0  0  0  0  0  0  0  0  0  0  0
  -10.0220   -3.3290   -4.9405 H   0  0  0  0  0  0  0  0  0  0  0  0
  -15.2899   -1.3427   -1.4830 H   0  0  0  0  0  0  0  0  0  0  0  0
  -12.6381   -2.1679    1.4462 H   0  0  0  0  0  0  0  0  0  0  0  0
   -8.2023   -5.3698    1.1253 H   0  0  0  0  0  0  0  0  0  0  0  0
   -5.7427   -5.3986    1.3134 H   0  0  0  0  0  0  0  0  0  0  0  0
    0.5413   -2.3365    0.8218 H   0  0  0  0  0  0  0  0  0  0  0  0
  1  2  1  0  0  0  0
  1 33  1  0  0  0  0
  1 34  1  0  0  0  0
  1 35  1  0  0  0  0
  2  3  1  0  0  0  0
  2 32  2  0  0  0  0
  3  4  2  0  0  0  0
  3 36  1  0  0  0  0
  4  5  1  0  0  0  0
  4 37  1  0  0  0  0
  5  6  2  0  0  0  0
  5 38  1  0  0  0  0
  6  7  1  0  0  0  0
  6 32  1  0  0  0  0
  7  8  1  0  0  0  0
  7 39  1  0  0  0  0
  8  9  2  0  0  0  0
  8 10  1  0  0  0  0
 10 11  1  0  0  0  0
 10 40  1  0  0  0  0
 11 12  1  0  0  0  0
 11 31  2  0  0  0  0
 12 13  2  0  0  0  0
 12 41  1  0  0  0  0
 13 14  1  0  0  0  0
 13 42  1  0  0  0  0
 14 15  1  0  0  0  0
 14 30  2  0  0  0  0
 15 16  1  0  0  0  0
 15 43  1  0  0  0  0
 16 17  1  0  0  0  0
 16 29  2  0  0  0  0
 17 18  2  0  0  0  0
 17 44  1  0  0  0  0
 18 19  1  0  0  0  0
 18 45  1  0  0  0  0
 19 20  1  0  0  0  0
 19 23  2  0  0  0  0
 20 21  2  0  0  0  0
 20 22  1  0  0  0  0
 23 24  1  0  0  0  0
 23 29  1  0  0  0  0
 24 25  2  0  0  0  0
 25 26  1  0  0  0  0
 25 46  1  0  0  0  0
 26 27  2  0  0  0  0
 27 28  1  0  0  0  0
 27 29  1  0  0  0  0
 28 47  1  0  0  0  0
 30 31  1  0  0  0  0
 30 48  1  0  0  0  0
 31 49  1  0  0  0  0
 32 50  1  0  0  0  0
M  CHG  2  20   1  22  -1
M  END
$$$$
