CHEMBL1929485
 OpenBabel04072215363D

 30 33  0  0  0  0  0  0  0  0999 V2000
    2.6076   -0.2262   -0.7198 C   0  0  0  0  0  0  0  0  0  0  0  0
    3.4747    0.2722   -1.6897 C   0  0  0  0  0  0  0  0  0  0  0  0
    4.3775    1.2911   -1.3759 C   0  0  0  0  0  0  0  0  0  0  0  0
    4.3664    1.8478   -0.0826 C   0  0  0  0  0  0  0  0  0  0  0  0
    5.0770    2.9156    0.5325 C   0  0  0  0  0  0  0  0  0  0  0  0
    4.4910    3.1072    1.7664 C   0  0  0  0  0  0  0  0  0  0  0  0
    3.6748    2.0517    2.0381 N   0  0  0  0  0  0  0  0  0  0  0  0
    3.4863    1.3290    0.8751 C   0  0  0  0  0  0  0  0  0  0  0  0
    2.6134    0.2760    0.5888 C   0  0  0  0  0  0  0  0  0  0  0  0
    4.7221    4.3087    2.5964 C   0  0  0  0  0  0  0  0  0  0  0  0
    4.6240    4.3593    3.9242 N   0  0  0  0  0  0  0  0  0  0  0  0
    4.9955    5.6235    4.2067 N   0  0  0  0  0  0  0  0  0  0  0  0
    5.2099    6.3994    3.1013 C   0  0  0  0  0  0  0  0  0  0  0  0
    5.0033    5.5775    2.0170 C   0  0  0  0  0  0  0  0  0  0  0  0
    4.9218    5.9079    0.5639 C   0  0  0  0  0  0  0  0  0  0  0  0
    5.8978    5.1659   -0.3545 C   0  0  0  0  0  0  0  0  0  0  0  0
    6.2231    3.7159    0.0035 C   0  0  0  0  0  0  0  0  0  0  0  0
    1.9109   -1.0181   -0.9867 H   0  0  0  0  0  0  0  0  0  0  0  0
    3.4449   -0.1224   -2.7021 H   0  0  0  0  0  0  0  0  0  0  0  0
    5.0474    1.6802   -2.1371 H   0  0  0  0  0  0  0  0  0  0  0  0
    3.1567    1.9333    2.8964 H   0  0  0  0  0  0  0  0  0  0  0  0
    1.9375   -0.1268    1.3381 H   0  0  0  0  0  0  0  0  0  0  0  0
    5.0562    5.9011    5.1809 H   0  0  0  0  0  0  0  0  0  0  0  0
    5.4426    7.4512    3.1829 H   0  0  0  0  0  0  0  0  0  0  0  0
    5.0397    6.9875    0.4126 H   0  0  0  0  0  0  0  0  0  0  0  0
    3.8989    5.6791    0.2307 H   0  0  0  0  0  0  0  0  0  0  0  0
    6.8431    5.7226   -0.3942 H   0  0  0  0  0  0  0  0  0  0  0  0
    5.4916    5.1955   -1.3741 H   0  0  0  0  0  0  0  0  0  0  0  0
    7.0133    3.7168    0.7693 H   0  0  0  0  0  0  0  0  0  0  0  0
    6.6712    3.2175   -0.8636 H   0  0  0  0  0  0  0  0  0  0  0  0
  1  2  1  0  0  0  0
  1  9  2  0  0  0  0
  1 18  1  0  0  0  0
  2  3  2  0  0  0  0
  2 19  1  0  0  0  0
  3  4  1  0  0  0  0
  3 20  1  0  0  0  0
  4  5  1  0  0  0  0
  4  8  2  0  0  0  0
  5  6  2  0  0  0  0
  5 17  1  0  0  0  0
  6  7  1  0  0  0  0
  6 10  1  0  0  0  0
  7  8  1  0  0  0  0
  7 21  1  0  0  0  0
  8  9  1  0  0  0  0
  9 22  1  0  0  0  0
 10 11  2  0  0  0  0
 10 14  1  0  0  0  0
 11 12  1  0  0  0  0
 12 13  1  0  0  0  0
 12 23  1  0  0  0  0
 13 14  2  0  0  0  0
 13 24  1  0  0  0  0
 14 15  1  0  0  0  0
 15 16  1  0  0  0  0
 15 25  1  0  0  0  0
 15 26  1  0  0  0  0
 16 17  1  0  0  0  0
 16 27  1  0  0  0  0
 16 28  1  0  0  0  0
 17 29  1  0  0  0  0
 17 30  1  0  0  0  0
M  END
$$$$
