CHEMBL295247
 OpenBabel04072215363D

 48 51  0  0  0  0  0  0  0  0999 V2000
   -2.4489   -5.4730   -3.6428 C   0  0  0  0  0  0  0  0  0  0  0  0
   -2.4793   -4.6421   -2.3964 C   0  0  0  0  0  0  0  0  0  0  0  0
   -3.6690   -4.1678   -1.8483 C   0  0  0  0  0  0  0  0  0  0  0  0
   -3.6502   -3.3974   -0.6801 C   0  0  0  0  0  0  0  0  0  0  0  0
   -4.9287   -2.8717   -0.0961 C   0  0  0  0  0  0  0  0  0  0  0  0
   -2.4227   -3.1283   -0.0481 C   0  0  0  0  0  0  0  0  0  0  0  0
   -1.2136   -3.6236   -0.5598 C   0  0  0  0  0  0  0  0  0  0  0  0
   -0.0108   -3.3645    0.1168 N   0  0  0  0  0  0  0  0  0  0  0  0
    1.2505   -3.9501   -0.0159 C   0  0  0  0  0  0  0  0  0  0  0  0
    1.5529   -4.7352   -1.0577 N   0  0  0  0  0  0  0  0  0  0  0  0
    2.7562   -5.3256   -1.0896 C   0  0  0  0  0  0  0  0  0  0  0  0
    3.6966   -5.1602   -0.1124 C   0  0  0  0  0  0  0  0  0  0  0  0
    3.3044   -4.3671    0.9449 C   0  0  0  0  0  0  0  0  0  0  0  0
    4.1567   -4.2771    2.0782 N   0  0  0  0  0  0  0  0  0  0  0  0
    5.5359   -4.3125    2.0402 C   0  0  0  0  0  0  0  0  0  0  0  0
    5.9594   -4.0449    3.3173 C   0  0  0  0  0  0  0  0  0  0  0  0
    7.3424   -3.8721    3.8168 C   0  0  0  0  0  0  0  0  0  0  0  0
    4.8836   -3.9431    4.1587 N   0  0  0  0  0  0  0  0  0  0  0  0
    3.7975   -4.1488    3.4256 C   0  0  0  0  0  0  0  0  0  0  0  0
    2.4393   -4.2918    3.9928 C   0  0  0  0  0  0  0  0  0  0  0  0
    2.1022   -3.5941    5.1613 C   0  0  0  0  0  0  0  0  0  0  0  0
    0.8169   -3.6848    5.7091 C   0  0  0  0  0  0  0  0  0  0  0  0
   -0.1553   -4.4684    5.0911 C   0  0  0  0  0  0  0  0  0  0  0  0
    0.1708   -5.2019    3.9568 C   0  0  0  0  0  0  0  0  0  0  0  0
    1.4676   -5.1431    3.4405 C   0  0  0  0  0  0  0  0  0  0  0  0
    2.1058   -3.7419    0.9911 N   0  0  0  0  0  0  0  0  0  0  0  0
   -1.2699   -4.3444   -1.7564 C   0  0  0  0  0  0  0  0  0  0  0  0
   -3.4528   -5.6427   -4.0421 H   0  0  0  0  0  0  0  0  0  0  0  0
   -2.0014   -6.4499   -3.4275 H   0  0  0  0  0  0  0  0  0  0  0  0
   -1.8537   -4.9735   -4.4146 H   0  0  0  0  0  0  0  0  0  0  0  0
   -4.6141   -4.3960   -2.3361 H   0  0  0  0  0  0  0  0  0  0  0  0
   -5.7930   -3.1488   -0.7093 H   0  0  0  0  0  0  0  0  0  0  0  0
   -4.8973   -1.7791   -0.0388 H   0  0  0  0  0  0  0  0  0  0  0  0
   -5.0833   -3.2839    0.9060 H   0  0  0  0  0  0  0  0  0  0  0  0
   -2.4196   -2.5348    0.8637 H   0  0  0  0  0  0  0  0  0  0  0  0
   -0.0841   -2.9349    1.0287 H   0  0  0  0  0  0  0  0  0  0  0  0
    2.9246   -5.9815   -1.9387 H   0  0  0  0  0  0  0  0  0  0  0  0
    4.6298   -5.7008   -0.1537 H   0  0  0  0  0  0  0  0  0  0  0  0
    6.0910   -4.4218    1.1214 H   0  0  0  0  0  0  0  0  0  0  0  0
    8.0641   -3.8776    2.9925 H   0  0  0  0  0  0  0  0  0  0  0  0
    7.6040   -4.6826    4.5031 H   0  0  0  0  0  0  0  0  0  0  0  0
    7.4421   -2.9199    4.3461 H   0  0  0  0  0  0  0  0  0  0  0  0
    2.8481   -2.9728    5.6541 H   0  0  0  0  0  0  0  0  0  0  0  0
    0.5761   -3.1384    6.6169 H   0  0  0  0  0  0  0  0  0  0  0  0
   -1.1604   -4.5201    5.5004 H   0  0  0  0  0  0  0  0  0  0  0  0
   -0.5762   -5.8229    3.4686 H   0  0  0  0  0  0  0  0  0  0  0  0
    1.6913   -5.7652    2.5789 H   0  0  0  0  0  0  0  0  0  0  0  0
   -0.3632   -4.7060   -2.2280 H   0  0  0  0  0  0  0  0  0  0  0  0
  1  2  1  0  0  0  0
  1 28  1  0  0  0  0
  1 29  1  0  0  0  0
  1 30  1  0  0  0  0
  2  3  1  0  0  0  0
  2 27  2  0  0  0  0
  3  4  2  0  0  0  0
  3 31  1  0  0  0  0
  4  5  1  0  0  0  0
  4  6  1  0  0  0  0
  5 32  1  0  0  0  0
  5 33  1  0  0  0  0
  5 34  1  0  0  0  0
  6  7  2  0  0  0  0
  6 35  1  0  0  0  0
  7  8  1  0  0  0  0
  7 27  1  0  0  0  0
  8  9  1  0  0  0  0
  8 36  1  0  0  0  0
  9 10  1  0  0  0  0
  9 26  2  0  0  0  0
 10 11  2  0  0  0  0
 11 12  1  0  0  0  0
 11 37  1  0  0  0  0
 12 13  2  0  0  0  0
 12 38  1  0  0  0  0
 13 14  1  0  0  0  0
 13 26  1  0  0  0  0
 14 15  1  0  0  0  0
 14 19  1  0  0  0  0
 15 16  2  0  0  0  0
 15 39  1  0  0  0  0
 16 17  1  0  0  0  0
 16 18  1  0  0  0  0
 17 40  1  0  0  0  0
 17 41  1  0  0  0  0
 17 42  1  0  0  0  0
 18 19  2  0  0  0  0
 19 20  1  0  0  0  0
 20 21  1  0  0  0  0
 20 25  2  0  0  0  0
 21 22  2  0  0  0  0
 21 43  1  0  0  0  0
 22 23  1  0  0  0  0
 22 44  1  0  0  0  0
 23 24  2  0  0  0  0
 23 45  1  0  0  0  0
 24 25  1  0  0  0  0
 24 46  1  0  0  0  0
 25 47  1  0  0  0  0
 27 48  1  0  0  0  0
M  END
$$$$
