CHEMBL2036868
 OpenBabel04072215363D

 42 45  0  0  0  0  0  0  0  0999 V2000
    2.4586   -2.5076    0.7154 C   0  0  0  0  0  0  0  0  0  0  0  0
    3.5414   -1.6466    0.3711 O   0  0  0  0  0  0  0  0  0  0  0  0
    3.9056   -0.7410    1.3215 C   0  0  0  0  0  0  0  0  0  0  0  0
    3.3158   -0.6118    2.5790 C   0  0  0  0  0  0  0  0  0  0  0  0
    3.7844    0.3519    3.4700 C   0  0  0  0  0  0  0  0  0  0  0  0
    4.8139    1.2237    3.1407 C   0  0  0  0  0  0  0  0  0  0  0  0
    5.3171    2.1678    4.0392 N   0  0  0  0  0  0  0  0  0  0  0  0
    4.9660    2.4712    5.3514 C   0  0  0  0  0  0  0  0  0  0  0  0
    5.4002    3.6754    5.7705 N   0  0  0  0  0  0  0  0  0  0  0  0
    5.1124    4.0290    7.0283 C   0  0  0  0  0  0  0  0  0  0  0  0
    4.4067    3.2307    7.8820 C   0  0  0  0  0  0  0  0  0  0  0  0
    3.9832    2.0161    7.3759 C   0  0  0  0  0  0  0  0  0  0  0  0
    3.4144    1.0421    8.3185 C   0  0  0  0  0  0  0  0  0  0  0  0
    3.4878    1.2499    9.6316 N   0  0  0  0  0  0  0  0  0  0  0  0
    4.2000    0.1661   10.0479 C   0  0  0  0  0  0  0  0  0  0  0  0
    5.0291    0.0446   11.1631 C   0  0  0  0  0  0  0  0  0  0  0  0
    5.7800   -1.1239   11.2892 C   0  0  0  0  0  0  0  0  0  0  0  0
    5.6182   -2.1830   10.3878 C   0  0  0  0  0  0  0  0  0  0  0  0
    4.7292   -2.1063    9.3047 C   0  0  0  0  0  0  0  0  0  0  0  0
    4.0945   -0.8753    9.1304 C   0  0  0  0  0  0  0  0  0  0  0  0
    3.2994   -0.3248    8.1478 N   0  0  0  0  0  0  0  0  0  0  0  0
    2.2389   -1.0120    7.4443 C   0  0  0  0  0  0  0  0  0  0  0  0
    4.2599    1.6170    6.1226 N   0  0  0  0  0  0  0  0  0  0  0  0
    5.4129    1.0785    1.8830 C   0  0  0  0  0  0  0  0  0  0  0  0
    4.9583    0.1153    0.9744 C   0  0  0  0  0  0  0  0  0  0  0  0
    2.3308   -3.2301   -0.0954 H   0  0  0  0  0  0  0  0  0  0  0  0
    1.5261   -1.9404    0.8141 H   0  0  0  0  0  0  0  0  0  0  0  0
    2.6712   -3.0755    1.6287 H   0  0  0  0  0  0  0  0  0  0  0  0
    2.5003   -1.2425    2.9002 H   0  0  0  0  0  0  0  0  0  0  0  0
    3.2910    0.4017    4.4374 H   0  0  0  0  0  0  0  0  0  0  0  0
    5.8219    2.9503    3.6462 H   0  0  0  0  0  0  0  0  0  0  0  0
    5.4916    4.9940    7.3513 H   0  0  0  0  0  0  0  0  0  0  0  0
    4.2471    3.5063    8.9167 H   0  0  0  0  0  0  0  0  0  0  0  0
    5.1487    0.8837   11.8373 H   0  0  0  0  0  0  0  0  0  0  0  0
    6.5142   -1.1929   12.0872 H   0  0  0  0  0  0  0  0  0  0  0  0
    6.2241   -3.0775   10.5155 H   0  0  0  0  0  0  0  0  0  0  0  0
    4.6331   -2.9178    8.5921 H   0  0  0  0  0  0  0  0  0  0  0  0
    1.9882   -1.9328    7.9822 H   0  0  0  0  0  0  0  0  0  0  0  0
    2.5610   -1.2491    6.4297 H   0  0  0  0  0  0  0  0  0  0  0  0
    1.3485   -0.3760    7.4302 H   0  0  0  0  0  0  0  0  0  0  0  0
    6.2449    1.7147    1.5892 H   0  0  0  0  0  0  0  0  0  0  0  0
    5.4257    0.0188    0.0032 H   0  0  0  0  0  0  0  0  0  0  0  0
  1  2  1  0  0  0  0
  1 26  1  0  0  0  0
  1 27  1  0  0  0  0
  1 28  1  0  0  0  0
  2  3  1  0  0  0  0
  3  4  1  0  0  0  0
  3 25  2  0  0  0  0
  4  5  2  0  0  0  0
  4 29  1  0  0  0  0
  5  6  1  0  0  0  0
  5 30  1  0  0  0  0
  6  7  1  0  0  0  0
  6 24  2  0  0  0  0
  7  8  1  0  0  0  0
  7 31  1  0  0  0  0
  8  9  1  0  0  0  0
  8 23  2  0  0  0  0
  9 10  2  0  0  0  0
 10 11  1  0  0  0  0
 10 32  1  0  0  0  0
 11 12  2  0  0  0  0
 11 33  1  0  0  0  0
 12 13  1  0  0  0  0
 12 23  1  0  0  0  0
 13 14  2  0  0  0  0
 13 21  1  0  0  0  0
 14 15  1  0  0  0  0
 15 16  1  0  0  0  0
 15 20  2  0  0  0  0
 16 17  2  0  0  0  0
 16 34  1  0  0  0  0
 17 18  1  0  0  0  0
 17 35  1  0  0  0  0
 18 19  2  0  0  0  0
 18 36  1  0  0  0  0
 19 20  1  0  0  0  0
 19 37  1  0  0  0  0
 20 21  1  0  0  0  0
 21 22  1  0  0  0  0
 22 38  1  0  0  0  0
 22 39  1  0  0  0  0
 22 40  1  0  0  0  0
 24 25  1  0  0  0  0
 24 41  1  0  0  0  0
 25 42  1  0  0  0  0
M  END
$$$$
