CHEMBL3671565
 OpenBabel04072215373D

 66 69  0  0  0  0  0  0  0  0999 V2000
    1.6743    1.1037   -1.1312 C   0  0  0  0  0  0  0  0  0  0  0  0
    2.6320    0.5503   -0.3794 C   0  0  0  0  0  0  0  0  0  0  0  0
    3.1568    1.2403    0.8283 C   0  0  0  0  0  0  0  0  0  0  0  0
    2.5383    2.1501    1.3731 O   0  0  0  0  0  0  0  0  0  0  0  0
    4.4314    0.8137    1.1489 N   0  0  0  0  0  0  0  0  0  0  0  0
    5.1600    1.3858    2.2104 C   0  0  0  0  0  0  0  0  0  0  0  0
    6.3991    1.9509    1.8825 C   0  0  0  0  0  0  0  0  0  0  0  0
    7.1491    2.6592    2.8505 C   0  0  0  0  0  0  0  0  0  0  0  0
    8.2803    3.4547    2.5950 C   0  0  0  0  0  0  0  0  0  0  0  0
    8.7046    3.6788    1.2572 N   0  0  0  0  0  0  0  0  0  0  0  0
    9.5364    4.7559    0.8702 C   0  0  0  0  0  0  0  0  0  0  0  0
    9.3091    6.0550    1.3483 C   0  0  0  0  0  0  0  0  0  0  0  0
   10.1870    7.0977    1.0458 C   0  0  0  0  0  0  0  0  0  0  0  0
   11.2970    6.8513    0.2408 C   0  0  0  0  0  0  0  0  0  0  0  0
   12.5313    8.2416   -0.0967 Br  0  0  0  0  0  0  0  0  0  0  0  0
   11.5148    5.5874   -0.3009 C   0  0  0  0  0  0  0  0  0  0  0  0
   10.6249    4.5559    0.0101 C   0  0  0  0  0  0  0  0  0  0  0  0
   10.8424    3.3350   -0.5014 F   0  0  0  0  0  0  0  0  0  0  0  0
    8.9414    4.0918    3.5826 N   0  0  0  0  0  0  0  0  0  0  0  0
    8.4648    3.9578    4.8203 C   0  0  0  0  0  0  0  0  0  0  0  0
    7.3764    3.2712    5.1658 N   0  0  0  0  0  0  0  0  0  0  0  0
    6.7192    2.6566    4.1818 C   0  0  0  0  0  0  0  0  0  0  0  0
    5.5305    2.0227    4.5010 C   0  0  0  0  0  0  0  0  0  0  0  0
    4.6967    1.4349    3.5355 C   0  0  0  0  0  0  0  0  0  0  0  0
    3.4805    0.8623    3.8565 O   0  0  0  0  0  0  0  0  0  0  0  0
    2.9411    1.2857    5.1195 C   0  0  0  0  0  0  0  0  0  0  0  0
    1.4474    0.9869    5.2761 C   0  0  0  0  0  0  0  0  0  0  0  0
    0.9139    1.6567    6.4686 N   0  0  0  0  0  0  0  0  0  0  0  0
    0.9069    1.0493    7.6945 C   0  0  0  0  0  0  0  0  0  0  0  0
    1.2448   -0.1256    7.8223 O   0  0  0  0  0  0  0  0  0  0  0  0
    0.4880    1.8191    8.7679 N   0  0  0  0  0  0  0  0  0  0  0  0
   -0.0426    3.1939    8.7232 C   0  0  0  0  0  0  0  0  0  0  0  0
    0.3002    3.9980    9.9945 C   0  0  0  0  0  0  0  0  0  0  0  0
   -0.0062    3.2605   11.2254 N   0  0  0  0  0  0  0  0  0  0  0  0
   -0.5609    3.9492   12.2899 C   0  0  0  0  0  0  0  0  0  0  0  0
   -0.8927    3.2240   13.5728 C   0  0  0  0  0  0  0  0  0  0  0  0
   -0.8394    5.1497   12.2095 O   0  0  0  0  0  0  0  0  0  0  0  0
    0.5746    1.9139   11.2614 C   0  0  0  0  0  0  0  0  0  0  0  0
    0.1844    1.1082   10.0168 C   0  0  0  0  0  0  0  0  0  0  0  0
    1.2691    0.5823   -1.9927 H   0  0  0  0  0  0  0  0  0  0  0  0
    1.2676    2.0847   -0.8991 H   0  0  0  0  0  0  0  0  0  0  0  0
    3.0285   -0.4324   -0.6133 H   0  0  0  0  0  0  0  0  0  0  0  0
    4.9659    0.4784    0.3554 H   0  0  0  0  0  0  0  0  0  0  0  0
    6.7406    1.9336    0.8517 H   0  0  0  0  0  0  0  0  0  0  0  0
    8.9759    2.8068    0.8134 H   0  0  0  0  0  0  0  0  0  0  0  0
    8.4512    6.2548    1.9890 H   0  0  0  0  0  0  0  0  0  0  0  0
   10.0037    8.0858    1.4603 H   0  0  0  0  0  0  0  0  0  0  0  0
   12.3599    5.3831   -0.9405 H   0  0  0  0  0  0  0  0  0  0  0  0
    9.0021    4.4672    5.6131 H   0  0  0  0  0  0  0  0  0  0  0  0
    5.2548    2.0351    5.5510 H   0  0  0  0  0  0  0  0  0  0  0  0
    3.0548    2.3733    5.2196 H   0  0  0  0  0  0  0  0  0  0  0  0
    3.4838    0.7864    5.9318 H   0  0  0  0  0  0  0  0  0  0  0  0
    1.2766   -0.0935    5.3388 H   0  0  0  0  0  0  0  0  0  0  0  0
    0.8884    1.3587    4.4123 H   0  0  0  0  0  0  0  0  0  0  0  0
    0.9271    2.6608    6.4361 H   0  0  0  0  0  0  0  0  0  0  0  0
   -1.1307    3.1077    8.6228 H   0  0  0  0  0  0  0  0  0  0  0  0
    0.3279    3.7425    7.8564 H   0  0  0  0  0  0  0  0  0  0  0  0
   -0.2227    4.9592    9.9649 H   0  0  0  0  0  0  0  0  0  0  0  0
    1.3763    4.2132   10.0177 H   0  0  0  0  0  0  0  0  0  0  0  0
   -0.5446    2.1981   13.6349 H   0  0  0  0  0  0  0  0  0  0  0  0
   -1.9806    3.2153   13.6912 H   0  0  0  0  0  0  0  0  0  0  0  0
   -0.4471    3.7716   14.4090 H   0  0  0  0  0  0  0  0  0  0  0  0
    0.2853    1.3538   12.1483 H   0  0  0  0  0  0  0  0  0  0  0  0
    1.6639    2.0416   11.2998 H   0  0  0  0  0  0  0  0  0  0  0  0
   -0.8990    0.9332   10.0208 H   0  0  0  0  0  0  0  0  0  0  0  0
    0.6724    0.1300   10.0528 H   0  0  0  0  0  0  0  0  0  0  0  0
  1  2  2  0  0  0  0
  1 40  1  0  0  0  0
  1 41  1  0  0  0  0
  2  3  1  0  0  0  0
  2 42  1  0  0  0  0
  3  4  2  0  0  0  0
  3  5  1  0  0  0  0
  5  6  1  0  0  0  0
  5 43  1  0  0  0  0
  6  7  1  0  0  0  0
  6 24  2  0  0  0  0
  7  8  2  0  0  0  0
  7 44  1  0  0  0  0
  8  9  1  0  0  0  0
  8 22  1  0  0  0  0
  9 10  1  0  0  0  0
  9 19  2  0  0  0  0
 10 11  1  0  0  0  0
 10 45  1  0  0  0  0
 11 12  1  0  0  0  0
 11 17  2  0  0  0  0
 12 13  2  0  0  0  0
 12 46  1  0  0  0  0
 13 14  1  0  0  0  0
 13 47  1  0  0  0  0
 14 15  1  0  0  0  0
 14 16  2  0  0  0  0
 16 17  1  0  0  0  0
 16 48  1  0  0  0  0
 17 18  1  0  0  0  0
 19 20  1  0  0  0  0
 20 21  2  0  0  0  0
 20 49  1  0  0  0  0
 21 22  1  0  0  0  0
 22 23  2  0  0  0  0
 23 24  1  0  0  0  0
 23 50  1  0  0  0  0
 24 25  1  0  0  0  0
 25 26  1  0  0  0  0
 26 27  1  0  0  0  0
 26 51  1  0  0  0  0
 26 52  1  0  0  0  0
 27 28  1  0  0  0  0
 27 53  1  0  0  0  0
 27 54  1  0  0  0  0
 28 29  1  0  0  0  0
 28 55  1  0  0  0  0
 29 30  2  0  0  0  0
 29 31  1  0  0  0  0
 31 32  1  0  0  0  0
 31 39  1  0  0  0  0
 32 33  1  0  0  0  0
 32 56  1  0  0  0  0
 32 57  1  0  0  0  0
 33 34  1  0  0  0  0
 33 58  1  0  0  0  0
 33 59  1  0  0  0  0
 34 35  1  0  0  0  0
 34 38  1  0  0  0  0
 35 36  1  0  0  0  0
 35 37  2  0  0  0  0
 36 60  1  0  0  0  0
 36 61  1  0  0  0  0
 36 62  1  0  0  0  0
 38 39  1  0  0  0  0
 38 63  1  0  0  0  0
 38 64  1  0  0  0  0
 39 65  1  0  0  0  0
 39 66  1  0  0  0  0
M  END
$$$$
