CHEMBL3946883
 OpenBabel04072215373D

 50 53  0  0  0  0  0  0  0  0999 V2000
    1.1937   -0.5623   -0.3972 O   0  0  0  0  0  0  0  0  0  0  0  0
    2.2997   -0.1799   -0.0434 C   0  0  0  0  0  0  0  0  0  0  0  0
    2.8616   -0.4837    1.1846 N   0  0  0  0  0  0  0  0  0  0  0  0
    2.2179   -1.2228    2.2042 C   0  0  0  0  0  0  0  0  0  0  0  0
    1.0791   -2.0070    2.0102 C   0  0  0  0  0  0  0  0  0  0  0  0
    0.4694   -2.6383    3.0917 C   0  0  0  0  0  0  0  0  0  0  0  0
    1.0489   -2.4969    4.3380 C   0  0  0  0  0  0  0  0  0  0  0  0
    0.4324   -3.1514    5.3883 O   0  0  0  0  0  0  0  0  0  0  0  0
    1.2355   -3.5918    6.4165 C   0  0  0  0  0  0  0  0  0  0  0  0
    2.4846   -4.1417    6.1979 C   0  0  0  0  0  0  0  0  0  0  0  0
    3.1436   -4.6284    7.3021 C   0  0  0  0  0  0  0  0  0  0  0  0
    4.4025   -5.2156    7.0944 N   0  0  0  0  0  0  0  0  0  0  0  0
    5.1325   -5.8615    8.0654 C   0  0  0  0  0  0  0  0  0  0  0  0
    4.8447   -5.9868    9.2466 O   0  0  0  0  0  0  0  0  0  0  0  0
    6.3994   -6.5113    7.6083 C   0  0  0  0  0  0  0  0  0  0  0  0
    7.0566   -6.3838    6.2577 C   0  0  0  0  0  0  0  0  0  0  0  0
    6.3239   -7.6460    6.6102 C   0  0  0  0  0  0  0  0  0  0  0  0
    2.6029   -4.5779    8.5237 N   0  0  0  0  0  0  0  0  0  0  0  0
    1.3799   -4.0470    8.6276 C   0  0  0  0  0  0  0  0  0  0  0  0
    0.6473   -3.5610    7.6229 N   0  0  0  0  0  0  0  0  0  0  0  0
    2.1679   -1.7715    4.5673 N   0  0  0  0  0  0  0  0  0  0  0  0
    2.7223   -1.1568    3.4995 C   0  0  0  0  0  0  0  0  0  0  0  0
    3.1283    0.6330   -0.8001 N   0  0  0  0  0  0  0  0  0  0  0  0
    2.8022    1.2136   -2.0467 C   0  0  0  0  0  0  0  0  0  0  0  0
    1.5515    1.0963   -2.6493 C   0  0  0  0  0  0  0  0  0  0  0  0
    1.3007    1.6754   -3.8928 C   0  0  0  0  0  0  0  0  0  0  0  0
    2.2920    2.3989   -4.5558 C   0  0  0  0  0  0  0  0  0  0  0  0
    1.8616    3.0515   -6.0915 Cl  0  0  0  0  0  0  0  0  0  0  0  0
    3.5497    2.5589   -3.9681 C   0  0  0  0  0  0  0  0  0  0  0  0
    4.6772    3.3470   -4.5807 C   0  0  0  0  0  0  0  0  0  0  0  0
    4.4724    3.8428   -5.8268 F   0  0  0  0  0  0  0  0  0  0  0  0
    5.0133    4.4208   -3.8084 F   0  0  0  0  0  0  0  0  0  0  0  0
    5.8172    2.6008   -4.6705 F   0  0  0  0  0  0  0  0  0  0  0  0
    3.7877    1.9567   -2.7062 C   0  0  0  0  0  0  0  0  0  0  0  0
    3.6821    0.0375    1.4541 H   0  0  0  0  0  0  0  0  0  0  0  0
    0.6346   -2.1506    1.0306 H   0  0  0  0  0  0  0  0  0  0  0  0
   -0.4283   -3.2316    2.9539 H   0  0  0  0  0  0  0  0  0  0  0  0
    2.9148   -4.1928    5.2082 H   0  0  0  0  0  0  0  0  0  0  0  0
    4.7588   -5.2142    6.1533 H   0  0  0  0  0  0  0  0  0  0  0  0
    7.0872   -6.6551    8.4399 H   0  0  0  0  0  0  0  0  0  0  0  0
    8.1421   -6.4285    6.2314 H   0  0  0  0  0  0  0  0  0  0  0  0
    6.6436   -5.7447    5.4907 H   0  0  0  0  0  0  0  0  0  0  0  0
    6.8974   -8.5387    6.8352 H   0  0  0  0  0  0  0  0  0  0  0  0
    5.3781   -7.8463    6.1194 H   0  0  0  0  0  0  0  0  0  0  0  0
    0.9426   -4.0178    9.6192 H   0  0  0  0  0  0  0  0  0  0  0  0
    3.6071   -0.5739    3.7376 H   0  0  0  0  0  0  0  0  0  0  0  0
    4.0735    0.7611   -0.4714 H   0  0  0  0  0  0  0  0  0  0  0  0
    0.7306    0.5578   -2.1875 H   0  0  0  0  0  0  0  0  0  0  0  0
    0.3144    1.5494   -4.3350 H   0  0  0  0  0  0  0  0  0  0  0  0
    4.7687    2.0852   -2.2472 H   0  0  0  0  0  0  0  0  0  0  0  0
  1  2  2  0  0  0  0
  2  3  1  0  0  0  0
  2 23  1  0  0  0  0
  3  4  1  0  0  0  0
  3 35  1  0  0  0  0
  4  5  1  0  0  0  0
  4 22  2  0  0  0  0
  5  6  2  0  0  0  0
  5 36  1  0  0  0  0
  6  7  1  0  0  0  0
  6 37  1  0  0  0  0
  7  8  1  0  0  0  0
  7 21  2  0  0  0  0
  8  9  1  0  0  0  0
  9 10  1  0  0  0  0
  9 20  2  0  0  0  0
 10 11  2  0  0  0  0
 10 38  1  0  0  0  0
 11 12  1  0  0  0  0
 11 18  1  0  0  0  0
 12 13  1  0  0  0  0
 12 39  1  0  0  0  0
 13 14  2  0  0  0  0
 13 15  1  0  0  0  0
 15 16  1  0  0  0  0
 15 17  1  0  0  0  0
 15 40  1  0  0  0  0
 16 17  1  0  0  0  0
 16 41  1  0  0  0  0
 16 42  1  0  0  0  0
 17 43  1  0  0  0  0
 17 44  1  0  0  0  0
 18 19  2  0  0  0  0
 19 20  1  0  0  0  0
 19 45  1  0  0  0  0
 21 22  1  0  0  0  0
 22 46  1  0  0  0  0
 23 24  1  0  0  0  0
 23 47  1  0  0  0  0
 24 25  1  0  0  0  0
 24 34  2  0  0  0  0
 25 26  2  0  0  0  0
 25 48  1  0  0  0  0
 26 27  1  0  0  0  0
 26 49  1  0  0  0  0
 27 28  1  0  0  0  0
 27 29  2  0  0  0  0
 29 30  1  0  0  0  0
 29 34  1  0  0  0  0
 30 31  1  0  0  0  0
 30 32  1  0  0  0  0
 30 33  1  0  0  0  0
 34 50  1  0  0  0  0
M  END
$$$$
