CHEMBL3984573
 OpenBabel04072215373D

 65 68  0  0  1  0  0  0  0  0999 V2000
    1.9153   -1.9070   -0.9174 C   0  0  0  0  0  0  0  0  0  0  0  0
    2.1303   -0.5668   -0.2036 C   0  0  1  0  0  0  0  0  0  0  0  0
    3.1390   -0.6863    0.8635 N   0  0  0  0  0  0  0  0  0  0  0  0
    2.7800   -1.5370    1.9241 C   0  0  0  0  0  0  0  0  0  0  0  0
    1.4778   -1.7476    2.2372 N   0  0  0  0  0  0  0  0  0  0  0  0
    1.1797   -2.6005    3.2398 C   0  0  0  0  0  0  0  0  0  0  0  0
    2.0241   -3.2876    4.0262 N   0  0  0  0  0  0  0  0  0  0  0  0
    3.2981   -3.0397    3.6951 C   0  0  0  0  0  0  0  0  0  0  0  0
    4.3821   -3.6015    4.3119 N   0  0  0  0  0  0  0  0  0  0  0  0
    5.5520   -3.1854    3.7088 C   0  0  0  0  0  0  0  0  0  0  0  0
    6.8811   -3.6569    4.1101 C   0  0  0  0  0  0  0  0  0  0  0  0
    7.0720   -4.9334    4.6638 C   0  0  0  0  0  0  0  0  0  0  0  0
    8.3566   -5.3921    4.9950 C   0  0  0  0  0  0  0  0  0  0  0  0
    9.4680   -4.5733    4.7802 C   0  0  0  0  0  0  0  0  0  0  0  0
   10.8614   -5.0057    5.0725 C   0  0  0  0  0  0  0  0  0  0  0  0
   11.7947   -4.5295    4.4312 O   0  0  0  0  0  0  0  0  0  0  0  0
   11.0354   -5.9132    6.0922 N   0  0  0  0  0  0  0  0  0  0  0  0
   12.3661   -6.3292    6.5058 C   0  0  0  0  0  0  0  0  0  0  0  0
   12.3698   -7.7239    7.1492 C   0  0  0  0  0  0  0  0  0  0  0  0
   11.8358   -8.7456    6.2338 N   0  0  0  0  0  0  0  0  0  0  0  0
   11.8675  -10.0692    6.8627 C   0  0  0  0  0  0  0  0  0  0  0  0
   11.3252  -11.1306    5.9089 C   0  0  0  0  0  0  0  0  0  0  0  0
   11.3376  -12.4918    6.5649 C   0  0  0  0  0  0  0  0  0  0  0  0
   11.7323  -12.7096    7.7093 O   0  0  0  0  0  0  0  0  0  0  0  0
   10.8631  -13.4981    5.7653 N   0  0  0  0  0  0  0  0  0  0  0  0
   10.8615  -14.7968    6.3186 O   0  0  0  0  0  0  0  0  0  0  0  0
    9.2849   -3.3007    4.2267 C   0  0  0  0  0  0  0  0  0  0  0  0
    8.0034   -2.8454    3.9028 C   0  0  0  0  0  0  0  0  0  0  0  0
    5.1727   -2.2975    2.7084 C   0  0  0  0  0  0  0  0  0  0  0  0
    3.7518   -2.2027    2.6934 C   0  0  0  0  0  0  0  0  0  0  0  0
    2.5684    0.4733   -1.2369 C   0  0  0  0  0  0  0  0  0  0  0  0
    1.5901    1.2297   -1.9082 C   0  0  0  0  0  0  0  0  0  0  0  0
    1.9454    2.1502   -2.8975 C   0  0  0  0  0  0  0  0  0  0  0  0
    3.2854    2.3350   -3.2286 C   0  0  0  0  0  0  0  0  0  0  0  0
    4.2679    1.5888   -2.5820 C   0  0  0  0  0  0  0  0  0  0  0  0
    3.9125    0.6553   -1.6013 C   0  0  0  0  0  0  0  0  0  0  0  0
    1.4646   -2.6504   -0.2518 H   0  0  0  0  0  0  0  0  0  0  0  0
    2.8617   -2.3244   -1.2796 H   0  0  0  0  0  0  0  0  0  0  0  0
    1.2440   -1.7971   -1.7759 H   0  0  0  0  0  0  0  0  0  0  0  0
    1.1834   -0.2165    0.2287 H   0  0  0  0  0  0  0  0  0  0  0  0
    3.2803    0.2322    1.2796 H   0  0  0  0  0  0  0  0  0  0  0  0
    0.1217   -2.7537    3.4314 H   0  0  0  0  0  0  0  0  0  0  0  0
    4.3078   -4.2366    5.0893 H   0  0  0  0  0  0  0  0  0  0  0  0
    6.2307   -5.6067    4.8091 H   0  0  0  0  0  0  0  0  0  0  0  0
    8.4704   -6.4049    5.3738 H   0  0  0  0  0  0  0  0  0  0  0  0
   10.2576   -6.1747    6.6819 H   0  0  0  0  0  0  0  0  0  0  0  0
   12.7309   -5.5886    7.2253 H   0  0  0  0  0  0  0  0  0  0  0  0
   13.0393   -6.3090    5.6409 H   0  0  0  0  0  0  0  0  0  0  0  0
   11.7585   -7.6958    8.0585 H   0  0  0  0  0  0  0  0  0  0  0  0
   13.3984   -7.9728    7.4384 H   0  0  0  0  0  0  0  0  0  0  0  0
   12.3971   -8.7448    5.3804 H   0  0  0  0  0  0  0  0  0  0  0  0
   11.2549  -10.0552    7.7713 H   0  0  0  0  0  0  0  0  0  0  0  0
   12.8927  -10.3256    7.1549 H   0  0  0  0  0  0  0  0  0  0  0  0
   11.9371  -11.1777    4.9990 H   0  0  0  0  0  0  0  0  0  0  0  0
   10.2935  -10.8945    5.6189 H   0  0  0  0  0  0  0  0  0  0  0  0
   10.5487  -13.3966    4.8058 H   0  0  0  0  0  0  0  0  0  0  0  0
   11.2239  -14.6419    7.2183 H   0  0  0  0  0  0  0  0  0  0  0  0
   10.1438   -2.6599    4.0384 H   0  0  0  0  0  0  0  0  0  0  0  0
    7.8985   -1.8484    3.4818 H   0  0  0  0  0  0  0  0  0  0  0  0
    5.8417   -1.7906    2.0241 H   0  0  0  0  0  0  0  0  0  0  0  0
    0.5361    1.0940   -1.6738 H   0  0  0  0  0  0  0  0  0  0  0  0
    1.1755    2.7175   -3.4139 H   0  0  0  0  0  0  0  0  0  0  0  0
    3.5623    3.0531   -3.9958 H   0  0  0  0  0  0  0  0  0  0  0  0
    5.3132    1.7251   -2.8470 H   0  0  0  0  0  0  0  0  0  0  0  0
    4.6932    0.0623   -1.1298 H   0  0  0  0  0  0  0  0  0  0  0  0
  1  2  1  0  0  0  0
  1 37  1  0  0  0  0
  1 38  1  0  0  0  0
  1 39  1  0  0  0  0
  2  3  1  0  0  0  0
  2 31  1  0  0  0  0
  2 40  1  1  0  0  0
  3  4  1  0  0  0  0
  3 41  1  0  0  0  0
  4  5  1  0  0  0  0
  4 30  2  0  0  0  0
  5  6  2  0  0  0  0
  6  7  1  0  0  0  0
  6 42  1  0  0  0  0
  7  8  2  0  0  0  0
  8  9  1  0  0  0  0
  8 30  1  0  0  0  0
  9 10  1  0  0  0  0
  9 43  1  0  0  0  0
 10 11  1  0  0  0  0
 10 29  2  0  0  0  0
 11 12  1  0  0  0  0
 11 28  2  0  0  0  0
 12 13  2  0  0  0  0
 12 44  1  0  0  0  0
 13 14  1  0  0  0  0
 13 45  1  0  0  0  0
 14 15  1  0  0  0  0
 14 27  2  0  0  0  0
 15 16  2  0  0  0  0
 15 17  1  0  0  0  0
 17 18  1  0  0  0  0
 17 46  1  0  0  0  0
 18 19  1  0  0  0  0
 18 47  1  0  0  0  0
 18 48  1  0  0  0  0
 19 20  1  0  0  0  0
 19 49  1  0  0  0  0
 19 50  1  0  0  0  0
 20 21  1  0  0  0  0
 20 51  1  0  0  0  0
 21 22  1  0  0  0  0
 21 52  1  0  0  0  0
 21 53  1  0  0  0  0
 22 23  1  0  0  0  0
 22 54  1  0  0  0  0
 22 55  1  0  0  0  0
 23 24  2  0  0  0  0
 23 25  1  0  0  0  0
 25 26  1  0  0  0  0
 25 56  1  0  0  0  0
 26 57  1  0  0  0  0
 27 28  1  0  0  0  0
 27 58  1  0  0  0  0
 28 59  1  0  0  0  0
 29 30  1  0  0  0  0
 29 60  1  0  0  0  0
 31 32  1  0  0  0  0
 31 36  2  0  0  0  0
 32 33  2  0  0  0  0
 32 61  1  0  0  0  0
 33 34  1  0  0  0  0
 33 62  1  0  0  0  0
 34 35  2  0  0  0  0
 34 63  1  0  0  0  0
 35 36  1  0  0  0  0
 35 64  1  0  0  0  0
 36 65  1  0  0  0  0
M  END
$$$$
