CHEMBL3894762
 OpenBabel04072215373D

 63 67  0  0  0  0  0  0  0  0999 V2000
    1.4849    0.4500    0.2416 C   0  0  0  0  0  0  0  0  0  0  0  0
    2.3456   -0.4822   -0.4070 O   0  0  0  0  0  0  0  0  0  0  0  0
    2.9904   -0.0439   -1.5320 C   0  0  0  0  0  0  0  0  0  0  0  0
    2.6214    1.0387   -2.3128 C   0  0  0  0  0  0  0  0  0  0  0  0
    3.3929    1.3753   -3.4280 C   0  0  0  0  0  0  0  0  0  0  0  0
    3.1071    2.3966   -4.2950 O   0  0  0  0  0  0  0  0  0  0  0  0
    1.7633    2.8646   -4.2835 C   0  0  0  0  0  0  0  0  0  0  0  0
    4.5914    0.6944   -3.6973 C   0  0  0  0  0  0  0  0  0  0  0  0
    5.0426   -0.3361   -2.8734 C   0  0  0  0  0  0  0  0  0  0  0  0
    6.3420   -0.8832   -3.0052 N   0  0  0  0  0  0  0  0  0  0  0  0
    6.8161   -1.7986   -1.9075 C   0  0  0  0  0  0  0  0  0  0  0  0
    7.3396   -1.0626   -0.6677 C   0  0  0  0  0  0  0  0  0  0  0  0
    8.1209   -1.6275    0.1010 O   0  0  0  0  0  0  0  0  0  0  0  0
    6.8268    0.1941   -0.4533 N   0  0  0  0  0  0  0  0  0  0  0  0
    7.1411    0.9921    0.6398 C   0  0  0  0  0  0  0  0  0  0  0  0
    8.4317    1.1329    1.0895 C   0  0  0  0  0  0  0  0  0  0  0  0
    8.6379    1.9581    2.1829 C   0  0  0  0  0  0  0  0  0  0  0  0
    9.8904    2.1968    2.6676 O   0  0  0  0  0  0  0  0  0  0  0  0
    7.5676    2.5744    2.8087 C   0  0  0  0  0  0  0  0  0  0  0  0
    6.3171    2.3872    2.2643 C   0  0  0  0  0  0  0  0  0  0  0  0
    6.0789    1.6445    1.1620 N   0  0  0  0  0  0  0  0  0  0  0  0
    7.4565   -0.5282   -3.8404 C   0  0  0  0  0  0  0  0  0  0  0  0
    8.0960   -1.5998   -4.4633 C   0  0  0  0  0  0  0  0  0  0  0  0
    9.4175   -1.4925   -4.8507 C   0  0  0  0  0  0  0  0  0  0  0  0
   10.0946   -0.3052   -4.7662 C   0  0  0  0  0  0  0  0  0  0  0  0
   11.3997   -0.4129   -5.0346 N   0  0  0  0  0  0  0  0  0  0  0  0
   12.0889    0.7375   -5.0848 C   0  0  0  0  0  0  0  0  0  0  0  0
   11.4815    1.9684   -4.9593 C   0  0  0  0  0  0  0  0  0  0  0  0
   12.2997    3.1198   -5.3164 C   0  0  0  0  0  0  0  0  0  0  0  0
   12.4011    3.8190   -6.5476 C   0  0  0  0  0  0  0  0  0  0  0  0
   13.4401    4.6643   -6.5828 N   0  0  0  0  0  0  0  0  0  0  0  0
   14.0122    4.5042   -5.3777 N   0  0  0  0  0  0  0  0  0  0  0  0
   15.0054    5.4391   -4.9031 C   0  0  0  0  0  0  0  0  0  0  0  0
   13.4659    3.4763   -4.6599 C   0  0  0  0  0  0  0  0  0  0  0  0
   10.1561    2.0814   -4.6008 N   0  0  0  0  0  0  0  0  0  0  0  0
    9.4351    0.9022   -4.4340 C   0  0  0  0  0  0  0  0  0  0  0  0
    8.0923    0.7431   -3.9250 C   0  0  0  0  0  0  0  0  0  0  0  0
    4.1429   -0.7610   -1.8637 C   0  0  0  0  0  0  0  0  0  0  0  0
    1.2975    0.0894    1.2584 H   0  0  0  0  0  0  0  0  0  0  0  0
    0.5245    0.5017   -0.2795 H   0  0  0  0  0  0  0  0  0  0  0  0
    1.9391    1.4437    0.3285 H   0  0  0  0  0  0  0  0  0  0  0  0
    1.7457    1.6157   -2.0489 H   0  0  0  0  0  0  0  0  0  0  0  0
    1.6604    3.5924   -5.0930 H   0  0  0  0  0  0  0  0  0  0  0  0
    1.5286    3.3780   -3.3460 H   0  0  0  0  0  0  0  0  0  0  0  0
    1.0586    2.0477   -4.4729 H   0  0  0  0  0  0  0  0  0  0  0  0
    5.1769    0.9989   -4.5600 H   0  0  0  0  0  0  0  0  0  0  0  0
    7.6536   -2.4276   -2.2345 H   0  0  0  0  0  0  0  0  0  0  0  0
    6.0556   -2.5307   -1.6191 H   0  0  0  0  0  0  0  0  0  0  0  0
    5.9241    0.4175   -0.8387 H   0  0  0  0  0  0  0  0  0  0  0  0
    9.2506    0.6338    0.5867 H   0  0  0  0  0  0  0  0  0  0  0  0
   10.5352    1.7791    2.0711 H   0  0  0  0  0  0  0  0  0  0  0  0
    7.7106    3.1905    3.6901 H   0  0  0  0  0  0  0  0  0  0  0  0
    5.4336    2.8356    2.7141 H   0  0  0  0  0  0  0  0  0  0  0  0
    7.6154   -2.5755   -4.5109 H   0  0  0  0  0  0  0  0  0  0  0  0
    9.9447   -2.3801   -5.1880 H   0  0  0  0  0  0  0  0  0  0  0  0
   13.1515    0.6313   -5.2758 H   0  0  0  0  0  0  0  0  0  0  0  0
   11.7898    3.7234   -7.4366 H   0  0  0  0  0  0  0  0  0  0  0  0
   15.2082    6.1920   -5.6693 H   0  0  0  0  0  0  0  0  0  0  0  0
   15.9204    4.9000   -4.6471 H   0  0  0  0  0  0  0  0  0  0  0  0
   14.5895    5.9241   -4.0154 H   0  0  0  0  0  0  0  0  0  0  0  0
   13.9305    3.1199   -3.7513 H   0  0  0  0  0  0  0  0  0  0  0  0
    7.5958    1.6233   -3.5220 H   0  0  0  0  0  0  0  0  0  0  0  0
    4.3485   -1.6153   -1.2254 H   0  0  0  0  0  0  0  0  0  0  0  0
  1  2  1  0  0  0  0
  1 39  1  0  0  0  0
  1 40  1  0  0  0  0
  1 41  1  0  0  0  0
  2  3  1  0  0  0  0
  3  4  1  0  0  0  0
  3 38  2  0  0  0  0
  4  5  2  0  0  0  0
  4 42  1  0  0  0  0
  5  6  1  0  0  0  0
  5  8  1  0  0  0  0
  6  7  1  0  0  0  0
  7 43  1  0  0  0  0
  7 44  1  0  0  0  0
  7 45  1  0  0  0  0
  8  9  2  0  0  0  0
  8 46  1  0  0  0  0
  9 10  1  0  0  0  0
  9 38  1  0  0  0  0
 10 11  1  0  0  0  0
 10 22  1  0  0  0  0
 11 12  1  0  0  0  0
 11 47  1  0  0  0  0
 11 48  1  0  0  0  0
 12 13  2  0  0  0  0
 12 14  1  0  0  0  0
 14 15  1  0  0  0  0
 14 49  1  0  0  0  0
 15 16  1  0  0  0  0
 15 21  2  0  0  0  0
 16 17  2  0  0  0  0
 16 50  1  0  0  0  0
 17 18  1  0  0  0  0
 17 19  1  0  0  0  0
 18 51  1  0  0  0  0
 19 20  2  0  0  0  0
 19 52  1  0  0  0  0
 20 21  1  0  0  0  0
 20 53  1  0  0  0  0
 22 23  1  0  0  0  0
 22 37  2  0  0  0  0
 23 24  2  0  0  0  0
 23 54  1  0  0  0  0
 24 25  1  0  0  0  0
 24 55  1  0  0  0  0
 25 26  1  0  0  0  0
 25 36  2  0  0  0  0
 26 27  2  0  0  0  0
 27 28  1  0  0  0  0
 27 56  1  0  0  0  0
 28 29  1  0  0  0  0
 28 35  2  0  0  0  0
 29 30  1  0  0  0  0
 29 34  2  0  0  0  0
 30 31  2  0  0  0  0
 30 57  1  0  0  0  0
 31 32  1  0  0  0  0
 32 33  1  0  0  0  0
 32 34  1  0  0  0  0
 33 58  1  0  0  0  0
 33 59  1  0  0  0  0
 33 60  1  0  0  0  0
 34 61  1  0  0  0  0
 35 36  1  0  0  0  0
 36 37  1  0  0  0  0
 37 62  1  0  0  0  0
 38 63  1  0  0  0  0
M  END
$$$$
