CHEMBL3656088
 OpenBabel04072215373D

 71 74  0  0  0  0  0  0  0  0999 V2000
    3.1628    8.3692   -0.7730 C   0  0  0  0  0  0  0  0  0  0  0  0
    3.6372    8.4059    0.6701 C   0  0  0  0  0  0  0  0  0  0  0  0
    4.8953    7.7178    0.7414 O   0  0  0  0  0  0  0  0  0  0  0  0
    4.7864    6.3635    0.9136 C   0  0  0  0  0  0  0  0  0  0  0  0
    3.7974    5.7882    1.3202 O   0  0  0  0  0  0  0  0  0  0  0  0
    5.9978    5.6708    0.3281 C   0  0  0  0  0  0  0  0  0  0  0  0
    6.2324    4.3304    1.0166 C   0  0  0  0  0  0  0  0  0  0  0  0
    7.4444    3.5759    0.4712 C   0  0  0  0  0  0  0  0  0  0  0  0
    8.6872    4.2982    0.6353 N   0  0  0  0  0  0  0  0  0  0  0  0
    9.4411    4.1514    1.7835 C   0  0  0  0  0  0  0  0  0  0  0  0
    9.0822    3.4411    2.7160 O   0  0  0  0  0  0  0  0  0  0  0  0
   10.6847    4.9115    1.8362 C   0  0  0  0  0  0  0  0  0  0  0  0
   11.2503    5.7464    0.8889 C   0  0  0  0  0  0  0  0  0  0  0  0
   12.4117    6.2751    1.4076 N   0  0  0  0  0  0  0  0  0  0  0  0
   12.6653    5.7356    2.6434 C   0  0  0  0  0  0  0  0  0  0  0  0
   13.8650    6.0113    3.4205 C   0  0  0  0  0  0  0  0  0  0  0  0
   14.0298    5.4400    4.6710 C   0  0  0  0  0  0  0  0  0  0  0  0
   15.2265    5.6335    5.3505 C   0  0  0  0  0  0  0  0  0  0  0  0
   15.5379    5.0349    6.5513 O   0  0  0  0  0  0  0  0  0  0  0  0
   15.0529    3.7669    6.8215 C   0  0  0  0  0  0  0  0  0  0  0  0
   14.7825    2.8298    5.8386 C   0  0  0  0  0  0  0  0  0  0  0  0
   14.2199    1.5892    6.1735 C   0  0  0  0  0  0  0  0  0  0  0  0
   13.9620    1.2425    7.5041 C   0  0  0  0  0  0  0  0  0  0  0  0
   13.3800   -0.0298    7.8082 N   0  0  0  0  0  0  0  0  0  0  0  0
   12.6707   -0.7984    6.8898 C   0  0  0  0  0  0  0  0  0  0  0  0
   12.4701   -0.4918    5.7224 O   0  0  0  0  0  0  0  0  0  0  0  0
   12.1348   -1.9618    7.4230 N   0  0  0  0  0  0  0  0  0  0  0  0
   11.3358   -2.7919    6.5770 C   0  0  0  0  0  0  0  0  0  0  0  0
   11.8562   -3.3248    5.3837 C   0  0  0  0  0  0  0  0  0  0  0  0
   11.0951   -4.2230    4.6136 C   0  0  0  0  0  0  0  0  0  0  0  0
   11.6522   -4.8678    3.3775 C   0  0  0  0  0  0  0  0  0  0  0  0
    9.7985   -4.5572    5.0256 C   0  0  0  0  0  0  0  0  0  0  0  0
    9.2587   -3.9918    6.1799 C   0  0  0  0  0  0  0  0  0  0  0  0
   10.0285   -3.1154    6.9423 C   0  0  0  0  0  0  0  0  0  0  0  0
    9.4759   -2.5535    8.0290 F   0  0  0  0  0  0  0  0  0  0  0  0
   14.3074    2.1855    8.4898 C   0  0  0  0  0  0  0  0  0  0  0  0
   14.0532    1.9533    9.7880 F   0  0  0  0  0  0  0  0  0  0  0  0
   14.8518    3.4341    8.1574 C   0  0  0  0  0  0  0  0  0  0  0  0
   16.1630    6.5053    4.8191 C   0  0  0  0  0  0  0  0  0  0  0  0
   15.9035    7.0598    3.5748 C   0  0  0  0  0  0  0  0  0  0  0  0
   14.7913    6.8101    2.8431 N   0  0  0  0  0  0  0  0  0  0  0  0
   11.5801    4.9264    2.9413 C   0  0  0  0  0  0  0  0  0  0  0  0
    2.2107    8.8930   -0.8814 H   0  0  0  0  0  0  0  0  0  0  0  0
    3.0366    7.3351   -1.1100 H   0  0  0  0  0  0  0  0  0  0  0  0
    3.9017    8.8310   -1.4373 H   0  0  0  0  0  0  0  0  0  0  0  0
    2.8879    7.9619    1.3318 H   0  0  0  0  0  0  0  0  0  0  0  0
    3.7845    9.4461    0.9847 H   0  0  0  0  0  0  0  0  0  0  0  0
    6.8687    6.3225    0.4493 H   0  0  0  0  0  0  0  0  0  0  0  0
    5.8247    5.5282   -0.7472 H   0  0  0  0  0  0  0  0  0  0  0  0
    5.3424    3.6972    0.8972 H   0  0  0  0  0  0  0  0  0  0  0  0
    6.3500    4.4980    2.0939 H   0  0  0  0  0  0  0  0  0  0  0  0
    7.3194    3.3566   -0.5931 H   0  0  0  0  0  0  0  0  0  0  0  0
    7.5371    2.6170    0.9938 H   0  0  0  0  0  0  0  0  0  0  0  0
    9.0846    4.7980   -0.1444 H   0  0  0  0  0  0  0  0  0  0  0  0
   10.9329    6.0280   -0.1029 H   0  0  0  0  0  0  0  0  0  0  0  0
   13.0188    6.9468    0.9565 H   0  0  0  0  0  0  0  0  0  0  0  0
   13.2481    4.8108    5.0812 H   0  0  0  0  0  0  0  0  0  0  0  0
   14.9509    3.0311    4.7883 H   0  0  0  0  0  0  0  0  0  0  0  0
   13.9991    0.9241    5.3584 H   0  0  0  0  0  0  0  0  0  0  0  0
   13.4398   -0.3532    8.7731 H   0  0  0  0  0  0  0  0  0  0  0  0
   11.7939   -1.8674    8.3694 H   0  0  0  0  0  0  0  0  0  0  0  0
   12.8668   -3.0675    5.0748 H   0  0  0  0  0  0  0  0  0  0  0  0
   12.6799   -4.5513    3.1775 H   0  0  0  0  0  0  0  0  0  0  0  0
   11.0389   -4.6120    2.5070 H   0  0  0  0  0  0  0  0  0  0  0  0
   11.6545   -5.9571    3.4999 H   0  0  0  0  0  0  0  0  0  0  0  0
    9.2088   -5.2693    4.4502 H   0  0  0  0  0  0  0  0  0  0  0  0
    8.2512   -4.2418    6.4950 H   0  0  0  0  0  0  0  0  0  0  0  0
   15.0873    4.1486    8.9416 H   0  0  0  0  0  0  0  0  0  0  0  0
   17.0720    6.7437    5.3592 H   0  0  0  0  0  0  0  0  0  0  0  0
   16.6117    7.7487    3.1213 H   0  0  0  0  0  0  0  0  0  0  0  0
   11.4400    4.3676    3.8595 H   0  0  0  0  0  0  0  0  0  0  0  0
  1  2  1  0  0  0  0
  1 43  1  0  0  0  0
  1 44  1  0  0  0  0
  1 45  1  0  0  0  0
  2  3  1  0  0  0  0
  2 46  1  0  0  0  0
  2 47  1  0  0  0  0
  3  4  1  0  0  0  0
  4  5  2  0  0  0  0
  4  6  1  0  0  0  0
  6  7  1  0  0  0  0
  6 48  1  0  0  0  0
  6 49  1  0  0  0  0
  7  8  1  0  0  0  0
  7 50  1  0  0  0  0
  7 51  1  0  0  0  0
  8  9  1  0  0  0  0
  8 52  1  0  0  0  0
  8 53  1  0  0  0  0
  9 10  1  0  0  0  0
  9 54  1  0  0  0  0
 10 11  2  0  0  0  0
 10 12  1  0  0  0  0
 12 13  2  0  0  0  0
 12 42  1  0  0  0  0
 13 14  1  0  0  0  0
 13 55  1  0  0  0  0
 14 15  1  0  0  0  0
 14 56  1  0  0  0  0
 15 16  1  0  0  0  0
 15 42  2  0  0  0  0
 16 17  1  0  0  0  0
 16 41  2  0  0  0  0
 17 18  2  0  0  0  0
 17 57  1  0  0  0  0
 18 19  1  0  0  0  0
 18 39  1  0  0  0  0
 19 20  1  0  0  0  0
 20 21  1  0  0  0  0
 20 38  2  0  0  0  0
 21 22  2  0  0  0  0
 21 58  1  0  0  0  0
 22 23  1  0  0  0  0
 22 59  1  0  0  0  0
 23 24  1  0  0  0  0
 23 36  2  0  0  0  0
 24 25  1  0  0  0  0
 24 60  1  0  0  0  0
 25 26  2  0  0  0  0
 25 27  1  0  0  0  0
 27 28  1  0  0  0  0
 27 61  1  0  0  0  0
 28 29  1  0  0  0  0
 28 34  2  0  0  0  0
 29 30  2  0  0  0  0
 29 62  1  0  0  0  0
 30 31  1  0  0  0  0
 30 32  1  0  0  0  0
 31 63  1  0  0  0  0
 31 64  1  0  0  0  0
 31 65  1  0  0  0  0
 32 33  2  0  0  0  0
 32 66  1  0  0  0  0
 33 34  1  0  0  0  0
 33 67  1  0  0  0  0
 34 35  1  0  0  0  0
 36 37  1  0  0  0  0
 36 38  1  0  0  0  0
 38 68  1  0  0  0  0
 39 40  2  0  0  0  0
 39 69  1  0  0  0  0
 40 41  1  0  0  0  0
 40 70  1  0  0  0  0
 42 71  1  0  0  0  0
M  END
$$$$
