CHEMBL3962355
 OpenBabel04072215373D

 64 69  0  0  1  0  0  0  0  0999 V2000
    3.8874    3.8136    2.6817 C   0  0  0  0  0  0  0  0  0  0  0  0
    4.1955    3.9555    1.3035 O   0  0  0  0  0  0  0  0  0  0  0  0
    3.7224    3.0257    0.4233 C   0  0  0  0  0  0  0  0  0  0  0  0
    4.5917    2.8132   -0.6552 C   0  0  0  0  0  0  0  0  0  0  0  0
    4.2799    1.9009   -1.6915 C   0  0  0  0  0  0  0  0  0  0  0  0
    5.1090    1.5675   -2.7714 C   0  0  0  0  0  0  0  0  0  0  0  0
    6.4142    2.1216   -2.8497 N   0  0  0  0  0  0  0  0  0  0  0  0
    7.1920    2.1066   -4.0251 C   0  0  0  0  0  0  0  0  0  0  0  0
    6.6327    2.5187   -5.2424 C   0  0  0  0  0  0  0  0  0  0  0  0
    7.3614    2.4412   -6.4277 C   0  0  0  0  0  0  0  0  0  0  0  0
    8.6710    1.9539   -6.4102 C   0  0  0  0  0  0  0  0  0  0  0  0
    9.4987    1.8414   -7.9186 Cl  0  0  0  0  0  0  0  0  0  0  0  0
    9.2464    1.5656   -5.1973 C   0  0  0  0  0  0  0  0  0  0  0  0
   10.8611    0.9556   -5.1008 Cl  0  0  0  0  0  0  0  0  0  0  0  0
    8.5138    1.6508   -4.0070 C   0  0  0  0  0  0  0  0  0  0  0  0
    4.7139    0.7180   -3.7409 N   0  0  0  0  0  0  0  0  0  0  0  0
    3.4979    0.1858   -3.6271 C   0  0  0  0  0  0  0  0  0  0  0  0
    2.6393    0.4150   -2.6329 N   0  0  0  0  0  0  0  0  0  0  0  0
    3.0401    1.2642   -1.6863 C   0  0  0  0  0  0  0  0  0  0  0  0
    2.1771    1.5119   -0.6382 C   0  0  0  0  0  0  0  0  0  0  0  0
    2.5047    2.3402    0.4513 C   0  0  0  0  0  0  0  0  0  0  0  0
    1.6490    2.4929    1.5190 O   0  0  0  0  0  0  0  0  0  0  0  0
    0.6629    1.4520    1.6341 C   0  0  0  0  0  0  0  0  0  0  0  0
    0.0802    1.3733    3.0381 C   0  0  3  0  0  0  0  0  0  0  0  0
   -0.8054    0.1169    3.1451 C   0  0  0  0  0  0  0  0  0  0  0  0
   -1.2160   -0.0116    4.5379 N   0  0  0  0  0  0  0  0  0  0  0  0
   -0.7607   -0.9313    5.4827 C   0  0  0  0  0  0  0  0  0  0  0  0
   -1.1680   -0.9153    6.6439 O   0  0  0  0  0  0  0  0  0  0  0  0
    0.2290   -2.0016    5.1280 C   0  0  0  0  0  0  0  0  0  0  0  0
    1.3208   -1.7877    4.2580 C   0  0  0  0  0  0  0  0  0  0  0  0
    2.1870   -2.8258    3.9016 C   0  0  0  0  0  0  0  0  0  0  0  0
    2.0026   -4.0425    4.5116 C   0  0  0  0  0  0  0  0  0  0  0  0
    1.0033   -4.2439    5.4335 C   0  0  0  0  0  0  0  0  0  0  0  0
    0.0973   -3.2516    5.7569 C   0  0  0  0  0  0  0  0  0  0  0  0
    1.0380   -5.4990    5.9574 O   0  0  0  0  0  0  0  0  0  0  0  0
    2.1769   -6.0559    5.2655 C   0  0  0  0  0  0  0  0  0  0  0  0
    2.7705   -5.1457    4.3175 O   0  0  0  0  0  0  0  0  0  0  0  0
   -2.0053    1.1493    4.9681 C   0  0  0  0  0  0  0  0  0  0  0  0
   -1.2293    2.4539    4.6921 C   0  0  0  0  0  0  0  0  0  0  0  0
   -0.7351    2.5247    3.3356 O   0  0  0  0  0  0  0  0  0  0  0  0
    4.8190    3.9714    3.2366 H   0  0  0  0  0  0  0  0  0  0  0  0
    3.5152    2.8266    2.9650 H   0  0  0  0  0  0  0  0  0  0  0  0
    3.1861    4.5984    2.9791 H   0  0  0  0  0  0  0  0  0  0  0  0
    5.5257    3.3733   -0.6840 H   0  0  0  0  0  0  0  0  0  0  0  0
    6.9366    1.8682   -2.0160 H   0  0  0  0  0  0  0  0  0  0  0  0
    5.6089    2.8874   -5.2712 H   0  0  0  0  0  0  0  0  0  0  0  0
    6.8951    2.7506   -7.3579 H   0  0  0  0  0  0  0  0  0  0  0  0
    8.9687    1.3272   -3.0745 H   0  0  0  0  0  0  0  0  0  0  0  0
    3.1836   -0.5000   -4.4051 H   0  0  0  0  0  0  0  0  0  0  0  0
    1.2116    1.0196   -0.7065 H   0  0  0  0  0  0  0  0  0  0  0  0
    1.1387    0.4800    1.4406 H   0  0  0  0  0  0  0  0  0  0  0  0
   -0.1391    1.6420    0.9123 H   0  0  0  0  0  0  0  0  0  0  0  0
    0.9050    1.3562    3.7631 H   0  0  0  0  0  0  0  0  0  0  0  0
   -0.3349   -0.7872    2.7686 H   0  0  0  0  0  0  0  0  0  0  0  0
   -1.7210    0.2511    2.5525 H   0  0  0  0  0  0  0  0  0  0  0  0
    1.5306   -0.8072    3.8519 H   0  0  0  0  0  0  0  0  0  0  0  0
    2.9906   -2.6726    3.1901 H   0  0  0  0  0  0  0  0  0  0  0  0
   -0.6844   -3.4355    6.4877 H   0  0  0  0  0  0  0  0  0  0  0  0
    1.8559   -6.9575    4.7323 H   0  0  0  0  0  0  0  0  0  0  0  0
    2.9405   -6.3342    6.0016 H   0  0  0  0  0  0  0  0  0  0  0  0
   -2.2845    1.0876    6.0228 H   0  0  0  0  0  0  0  0  0  0  0  0
   -2.9256    1.1399    4.3711 H   0  0  0  0  0  0  0  0  0  0  0  0
   -0.3766    2.5492    5.3726 H   0  0  0  0  0  0  0  0  0  0  0  0
   -1.8832    3.3182    4.8457 H   0  0  0  0  0  0  0  0  0  0  0  0
  1  2  1  0  0  0  0
  1 41  1  0  0  0  0
  1 42  1  0  0  0  0
  1 43  1  0  0  0  0
  2  3  1  0  0  0  0
  3  4  1  0  0  0  0
  3 21  2  0  0  0  0
  4  5  2  0  0  0  0
  4 44  1  0  0  0  0
  5  6  1  0  0  0  0
  5 19  1  0  0  0  0
  6  7  1  0  0  0  0
  6 16  2  0  0  0  0
  7  8  1  0  0  0  0
  7 45  1  0  0  0  0
  8  9  1  0  0  0  0
  8 15  2  0  0  0  0
  9 10  2  0  0  0  0
  9 46  1  0  0  0  0
 10 11  1  0  0  0  0
 10 47  1  0  0  0  0
 11 12  1  0  0  0  0
 11 13  2  0  0  0  0
 13 14  1  0  0  0  0
 13 15  1  0  0  0  0
 15 48  1  0  0  0  0
 16 17  1  0  0  0  0
 17 18  2  0  0  0  0
 17 49  1  0  0  0  0
 18 19  1  0  0  0  0
 19 20  2  0  0  0  0
 20 21  1  0  0  0  0
 20 50  1  0  0  0  0
 21 22  1  0  0  0  0
 22 23  1  0  0  0  0
 23 24  1  0  0  0  0
 23 51  1  0  0  0  0
 23 52  1  0  0  0  0
 24 25  1  0  0  0  0
 24 40  1  0  0  0  0
 24 53  1  0  0  0  0
 25 26  1  0  0  0  0
 25 54  1  0  0  0  0
 25 55  1  0  0  0  0
 26 27  1  0  0  0  0
 26 38  1  0  0  0  0
 27 28  2  0  0  0  0
 27 29  1  0  0  0  0
 29 30  1  0  0  0  0
 29 34  2  0  0  0  0
 30 31  2  0  0  0  0
 30 56  1  0  0  0  0
 31 32  1  0  0  0  0
 31 57  1  0  0  0  0
 32 33  2  0  0  0  0
 32 37  1  0  0  0  0
 33 34  1  0  0  0  0
 33 35  1  0  0  0  0
 34 58  1  0  0  0  0
 35 36  1  0  0  0  0
 36 37  1  0  0  0  0
 36 59  1  0  0  0  0
 36 60  1  0  0  0  0
 38 39  1  0  0  0  0
 38 61  1  0  0  0  0
 38 62  1  0  0  0  0
 39 40  1  0  0  0  0
 39 63  1  0  0  0  0
 39 64  1  0  0  0  0
M  END
$$$$
