CHEMBL395694
 OpenBabel04072215373D

 38 41  0  0  0  0  0  0  0  0999 V2000
    0.8710   -0.4083    2.0767 C   0  0  0  0  0  0  0  0  0  0  0  0
    2.2156   -1.0899    1.9174 C   0  0  0  0  0  0  0  0  0  0  0  0
    3.5569    0.0934    1.8403 S   0  0  0  0  0  0  0  0  0  0  0  0
    3.3712    0.9064    0.6543 O   0  0  0  0  0  0  0  0  0  0  0  0
    3.7549    0.6957    3.1390 O   0  0  0  0  0  0  0  0  0  0  0  0
    4.8600   -0.9114    1.4719 N   0  0  0  0  0  0  0  0  0  0  0  0
    5.6679   -1.4164    2.5283 C   0  0  0  0  0  0  0  0  0  0  0  0
    5.3510   -2.6629    3.0834 C   0  0  0  0  0  0  0  0  0  0  0  0
    6.1584   -3.2447    4.0809 C   0  0  0  0  0  0  0  0  0  0  0  0
    7.3000   -2.5925    4.5456 C   0  0  0  0  0  0  0  0  0  0  0  0
    7.5808   -1.3572    4.0037 C   0  0  0  0  0  0  0  0  0  0  0  0
    6.7758   -0.7379    3.0087 C   0  0  0  0  0  0  0  0  0  0  0  0
    7.2920    0.6465    2.5958 C   0  0  0  0  0  0  0  0  0  0  0  0
    8.5153    0.6718    3.4494 C   0  0  0  0  0  0  0  0  0  0  0  0
    8.6644   -0.4691    4.2464 C   0  0  0  0  0  0  0  0  0  0  0  0
    9.7677   -0.4804    4.9798 N   0  0  0  0  0  0  0  0  0  0  0  0
   10.3360    0.7087    4.6445 N   0  0  0  0  0  0  0  0  0  0  0  0
    9.6118    1.4448    3.7258 C   0  0  0  0  0  0  0  0  0  0  0  0
    9.9708    2.7753    3.1677 C   0  0  0  0  0  0  0  0  0  0  0  0
    9.1500    3.5411    2.2866 C   0  0  0  0  0  0  0  0  0  0  0  0
    9.7385    4.7319    1.9212 C   0  0  0  0  0  0  0  0  0  0  0  0
   11.2759    4.9320    2.6391 S   0  0  0  0  0  0  0  0  0  0  0  0
   11.1535    3.4258    3.4494 C   0  0  0  0  0  0  0  0  0  0  0  0
    0.0730   -1.1548    2.1400 H   0  0  0  0  0  0  0  0  0  0  0  0
    0.6564    0.2465    1.2259 H   0  0  0  0  0  0  0  0  0  0  0  0
    0.8413    0.2015    2.9850 H   0  0  0  0  0  0  0  0  0  0  0  0
    2.2342   -1.6715    0.9910 H   0  0  0  0  0  0  0  0  0  0  0  0
    2.4050   -1.7500    2.7678 H   0  0  0  0  0  0  0  0  0  0  0  0
    5.3510   -0.5783    0.6410 H   0  0  0  0  0  0  0  0  0  0  0  0
    4.4871   -3.2155    2.7234 H   0  0  0  0  0  0  0  0  0  0  0  0
    5.8967   -4.2216    4.4818 H   0  0  0  0  0  0  0  0  0  0  0  0
    7.9435   -3.0343    5.2990 H   0  0  0  0  0  0  0  0  0  0  0  0
    6.5865    1.4309    2.8786 H   0  0  0  0  0  0  0  0  0  0  0  0
    7.5397    0.6746    1.5328 H   0  0  0  0  0  0  0  0  0  0  0  0
   11.2166    0.9546    5.0786 H   0  0  0  0  0  0  0  0  0  0  0  0
    8.1689    3.2509    1.9355 H   0  0  0  0  0  0  0  0  0  0  0  0
    9.3346    5.4933    1.2681 H   0  0  0  0  0  0  0  0  0  0  0  0
   11.9728    3.1081    4.0786 H   0  0  0  0  0  0  0  0  0  0  0  0
  1  2  1  0  0  0  0
  1 24  1  0  0  0  0
  1 25  1  0  0  0  0
  1 26  1  0  0  0  0
  2  3  1  0  0  0  0
  2 27  1  0  0  0  0
  2 28  1  0  0  0  0
  3  4  2  0  0  0  0
  3  5  2  0  0  0  0
  3  6  1  0  0  0  0
  6  7  1  0  0  0  0
  6 29  1  0  0  0  0
  7  8  1  0  0  0  0
  7 12  2  0  0  0  0
  8  9  2  0  0  0  0
  8 30  1  0  0  0  0
  9 10  1  0  0  0  0
  9 31  1  0  0  0  0
 10 11  2  0  0  0  0
 10 32  1  0  0  0  0
 11 12  1  0  0  0  0
 11 15  1  0  0  0  0
 12 13  1  0  0  0  0
 13 14  1  0  0  0  0
 13 33  1  0  0  0  0
 13 34  1  0  0  0  0
 14 15  1  0  0  0  0
 14 18  2  0  0  0  0
 15 16  2  0  0  0  0
 16 17  1  0  0  0  0
 17 18  1  0  0  0  0
 17 35  1  0  0  0  0
 18 19  1  0  0  0  0
 19 20  1  0  0  0  0
 19 23  2  0  0  0  0
 20 21  2  0  0  0  0
 20 36  1  0  0  0  0
 21 22  1  0  0  0  0
 21 37  1  0  0  0  0
 22 23  1  0  0  0  0
 23 38  1  0  0  0  0
M  END
$$$$
