CHEMBL3906367
 OpenBabel04072215373D

 53 56  0  0  0  0  0  0  0  0999 V2000
   -1.3087    1.0358    3.3724 C   0  0  0  0  0  0  0  0  0  0  0  0
   -2.4697    1.0013    2.4450 C   0  0  0  0  0  0  0  0  0  0  0  0
   -3.1852    2.1231    1.9432 C   0  0  0  0  0  0  0  0  0  0  0  0
   -4.1666    1.6276    1.1207 C   0  0  0  0  0  0  0  0  0  0  0  0
   -4.1100    0.2741    1.0736 O   0  0  0  0  0  0  0  0  0  0  0  0
   -3.0785   -0.1185    1.8892 C   0  0  0  0  0  0  0  0  0  0  0  0
   -2.8020   -1.5388    2.0369 C   0  0  0  0  0  0  0  0  0  0  0  0
   -1.9268   -1.9482    2.7948 O   0  0  0  0  0  0  0  0  0  0  0  0
   -3.5923   -2.3435    1.2245 N   0  0  0  0  0  0  0  0  0  0  0  0
   -3.5545   -3.7514    1.1335 C   0  0  0  0  0  0  0  0  0  0  0  0
   -2.8947   -4.5507    2.0704 C   0  0  0  0  0  0  0  0  0  0  0  0
   -2.7922   -5.9287    1.8891 C   0  0  0  0  0  0  0  0  0  0  0  0
   -3.3748   -6.5276    0.7781 C   0  0  0  0  0  0  0  0  0  0  0  0
   -4.1533   -5.7623   -0.0925 C   0  0  0  0  0  0  0  0  0  0  0  0
   -4.8581   -6.2943   -1.1513 O   0  0  0  0  0  0  0  0  0  0  0  0
   -5.4067   -7.5572   -1.0401 C   0  0  0  0  0  0  0  0  0  0  0  0
   -5.8679   -8.1079    0.1570 C   0  0  0  0  0  0  0  0  0  0  0  0
   -6.3426   -9.4049    0.1652 C   0  0  0  0  0  0  0  0  0  0  0  0
   -6.4706  -10.1878   -0.9183 N   0  0  0  0  0  0  0  0  0  0  0  0
   -6.1139   -9.6208   -2.1010 C   0  0  0  0  0  0  0  0  0  0  0  0
   -6.2307  -10.2512   -3.3712 C   0  0  0  0  0  0  0  0  0  0  0  0
   -5.8176   -9.4438   -4.4105 C   0  0  0  0  0  0  0  0  0  0  0  0
   -5.8364   -9.7760   -5.8302 C   0  0  0  0  0  0  0  0  0  0  0  0
   -6.1994  -10.8675   -6.2509 O   0  0  0  0  0  0  0  0  0  0  0  0
   -5.4115   -8.7729   -6.6783 N   0  0  0  0  0  0  0  0  0  0  0  0
   -5.3377   -8.9268   -8.1130 C   0  0  0  0  0  0  0  0  0  0  0  0
   -3.9117   -8.7729   -8.6280 C   0  0  0  0  0  0  0  0  0  0  0  0
   -2.9664   -9.8186   -8.0521 C   0  0  0  0  0  0  0  0  0  0  0  0
   -1.6631   -9.6298   -8.5892 O   0  0  0  0  0  0  0  0  0  0  0  0
   -5.2471   -7.9373   -3.8353 S   0  0  0  0  0  0  0  0  0  0  0  0
   -5.5877   -8.3330   -2.1982 C   0  0  0  0  0  0  0  0  0  0  0  0
   -4.2100   -4.3715    0.0638 C   0  0  0  0  0  0  0  0  0  0  0  0
   -1.0098    2.0683    3.5852 H   0  0  0  0  0  0  0  0  0  0  0  0
   -0.4451    0.5241    2.9357 H   0  0  0  0  0  0  0  0  0  0  0  0
   -1.5569    0.5564    4.3245 H   0  0  0  0  0  0  0  0  0  0  0  0
   -3.0020    3.1672    2.1586 H   0  0  0  0  0  0  0  0  0  0  0  0
   -4.9444    2.0867    0.5264 H   0  0  0  0  0  0  0  0  0  0  0  0
   -4.1842   -1.8422    0.5709 H   0  0  0  0  0  0  0  0  0  0  0  0
   -2.4445   -4.1290    2.9637 H   0  0  0  0  0  0  0  0  0  0  0  0
   -2.2572   -6.5324    2.6183 H   0  0  0  0  0  0  0  0  0  0  0  0
   -3.2420   -7.5951    0.6305 H   0  0  0  0  0  0  0  0  0  0  0  0
   -5.8353   -7.5536    1.0890 H   0  0  0  0  0  0  0  0  0  0  0  0
   -6.6435   -9.8695    1.1015 H   0  0  0  0  0  0  0  0  0  0  0  0
   -6.6195  -11.2526   -3.5132 H   0  0  0  0  0  0  0  0  0  0  0  0
   -5.1201   -7.8956   -6.2634 H   0  0  0  0  0  0  0  0  0  0  0  0
   -5.9691   -8.1432   -8.5444 H   0  0  0  0  0  0  0  0  0  0  0  0
   -5.7505   -9.8934   -8.4200 H   0  0  0  0  0  0  0  0  0  0  0  0
   -3.5289   -7.7714   -8.3932 H   0  0  0  0  0  0  0  0  0  0  0  0
   -3.9106   -8.8428   -9.7229 H   0  0  0  0  0  0  0  0  0  0  0  0
   -3.3006  -10.8349   -8.2834 H   0  0  0  0  0  0  0  0  0  0  0  0
   -2.8880   -9.7217   -6.9649 H   0  0  0  0  0  0  0  0  0  0  0  0
   -1.6988   -9.8709   -9.5315 H   0  0  0  0  0  0  0  0  0  0  0  0
   -4.7583   -3.7840   -0.6720 H   0  0  0  0  0  0  0  0  0  0  0  0
  1  2  1  0  0  0  0
  1 33  1  0  0  0  0
  1 34  1  0  0  0  0
  1 35  1  0  0  0  0
  2  3  1  0  0  0  0
  2  6  2  0  0  0  0
  3  4  2  0  0  0  0
  3 36  1  0  0  0  0
  4  5  1  0  0  0  0
  4 37  1  0  0  0  0
  5  6  1  0  0  0  0
  6  7  1  0  0  0  0
  7  8  2  0  0  0  0
  7  9  1  0  0  0  0
  9 10  1  0  0  0  0
  9 38  1  0  0  0  0
 10 11  1  0  0  0  0
 10 32  2  0  0  0  0
 11 12  2  0  0  0  0
 11 39  1  0  0  0  0
 12 13  1  0  0  0  0
 12 40  1  0  0  0  0
 13 14  2  0  0  0  0
 13 41  1  0  0  0  0
 14 15  1  0  0  0  0
 14 32  1  0  0  0  0
 15 16  1  0  0  0  0
 16 17  1  0  0  0  0
 16 31  2  0  0  0  0
 17 18  2  0  0  0  0
 17 42  1  0  0  0  0
 18 19  1  0  0  0  0
 18 43  1  0  0  0  0
 19 20  2  0  0  0  0
 20 21  1  0  0  0  0
 20 31  1  0  0  0  0
 21 22  2  0  0  0  0
 21 44  1  0  0  0  0
 22 23  1  0  0  0  0
 22 30  1  0  0  0  0
 23 24  2  0  0  0  0
 23 25  1  0  0  0  0
 25 26  1  0  0  0  0
 25 45  1  0  0  0  0
 26 27  1  0  0  0  0
 26 46  1  0  0  0  0
 26 47  1  0  0  0  0
 27 28  1  0  0  0  0
 27 48  1  0  0  0  0
 27 49  1  0  0  0  0
 28 29  1  0  0  0  0
 28 50  1  0  0  0  0
 28 51  1  0  0  0  0
 29 52  1  0  0  0  0
 30 31  1  0  0  0  0
 32 53  1  0  0  0  0
M  END
$$$$
