CHEMBL24026
 OpenBabel04072215363D

 56 59  0  0  0  0  0  0  0  0999 V2000
    3.1369    0.7685   -0.9105 C   0  0  0  0  0  0  0  0  0  0  0  0
    2.3915   -0.3627   -0.4418 O   0  0  0  0  0  0  0  0  0  0  0  0
    3.1004   -1.2646    0.3101 C   0  0  0  0  0  0  0  0  0  0  0  0
    4.1622   -0.8748    1.1309 C   0  0  0  0  0  0  0  0  0  0  0  0
    4.9632   -1.8373    1.7845 C   0  0  0  0  0  0  0  0  0  0  0  0
    6.0891   -1.5524    2.5659 C   0  0  0  0  0  0  0  0  0  0  0  0
    6.4526   -0.1997    2.7934 N   0  0  0  0  0  0  0  0  0  0  0  0
    7.7386    0.1877    3.2277 C   0  0  0  0  0  0  0  0  0  0  0  0
    8.8831   -0.3092    2.5898 C   0  0  0  0  0  0  0  0  0  0  0  0
   10.1556    0.0104    3.0615 C   0  0  0  0  0  0  0  0  0  0  0  0
   10.2962    0.8443    4.1752 C   0  0  0  0  0  0  0  0  0  0  0  0
   11.6010    1.1300    4.6852 C   0  0  0  0  0  0  0  0  0  0  0  0
   12.6591    1.3555    5.1047 N   0  0  0  0  0  0  0  0  0  0  0  0
    9.1654    1.3823    4.7940 C   0  0  0  0  0  0  0  0  0  0  0  0
    7.9018    1.0564    4.3111 C   0  0  0  0  0  0  0  0  0  0  0  0
    6.8189    1.5622    4.9219 F   0  0  0  0  0  0  0  0  0  0  0  0
    6.8548   -2.5253    3.1005 N   0  0  0  0  0  0  0  0  0  0  0  0
    6.4837   -3.7837    2.8666 C   0  0  0  0  0  0  0  0  0  0  0  0
    5.4228   -4.1644    2.1549 N   0  0  0  0  0  0  0  0  0  0  0  0
    4.6830   -3.1934    1.6216 C   0  0  0  0  0  0  0  0  0  0  0  0
    3.5855   -3.5618    0.8742 C   0  0  0  0  0  0  0  0  0  0  0  0
    2.7442   -2.6211    0.2653 C   0  0  0  0  0  0  0  0  0  0  0  0
    1.5870   -2.9962   -0.3823 O   0  0  0  0  0  0  0  0  0  0  0  0
    1.0758   -4.2738    0.0350 C   0  0  0  0  0  0  0  0  0  0  0  0
   -0.3616   -4.4822   -0.3283 C   0  0  0  0  0  0  0  0  0  0  0  0
   -1.1039   -3.6631   -1.0849 C   0  0  0  0  0  0  0  0  0  0  0  0
   -2.5550   -3.8701   -1.4065 C   0  0  0  0  0  0  0  0  0  0  0  0
   -3.4668   -2.8231   -0.9429 N   0  0  0  0  0  0  0  0  0  0  0  0
   -3.1404   -1.4742   -1.4106 C   0  0  0  0  0  0  0  0  0  0  0  0
   -2.4554   -0.7853   -0.2448 C   0  0  0  0  0  0  0  0  0  0  0  0
   -3.1170   -1.3987    0.9721 C   0  0  0  0  0  0  0  0  0  0  0  0
   -3.6168   -2.7639    0.5150 C   0  0  0  0  0  0  0  0  0  0  0  0
    2.8417    0.9746   -1.9436 H   0  0  0  0  0  0  0  0  0  0  0  0
    4.2238    0.6170   -0.9224 H   0  0  0  0  0  0  0  0  0  0  0  0
    2.8940    1.6445   -0.3000 H   0  0  0  0  0  0  0  0  0  0  0  0
    4.3995    0.1787    1.2512 H   0  0  0  0  0  0  0  0  0  0  0  0
    5.7187    0.2641    3.3265 H   0  0  0  0  0  0  0  0  0  0  0  0
    8.7812   -0.9718    1.7325 H   0  0  0  0  0  0  0  0  0  0  0  0
   11.0266   -0.4115    2.5642 H   0  0  0  0  0  0  0  0  0  0  0  0
    9.2502    2.0366    5.6567 H   0  0  0  0  0  0  0  0  0  0  0  0
    7.1002   -4.5688    3.2898 H   0  0  0  0  0  0  0  0  0  0  0  0
    3.4041   -4.6294    0.7842 H   0  0  0  0  0  0  0  0  0  0  0  0
    1.1330   -4.3700    1.1279 H   0  0  0  0  0  0  0  0  0  0  0  0
    1.6583   -5.0706   -0.4423 H   0  0  0  0  0  0  0  0  0  0  0  0
   -0.8168   -5.3762    0.0945 H   0  0  0  0  0  0  0  0  0  0  0  0
   -0.6327   -2.7865   -1.5198 H   0  0  0  0  0  0  0  0  0  0  0  0
   -2.9016   -4.8386   -1.0199 H   0  0  0  0  0  0  0  0  0  0  0  0
   -2.6445   -3.9542   -2.4967 H   0  0  0  0  0  0  0  0  0  0  0  0
   -4.0799   -0.9561   -1.6365 H   0  0  0  0  0  0  0  0  0  0  0  0
   -2.5392   -1.4503   -2.3262 H   0  0  0  0  0  0  0  0  0  0  0  0
   -2.5786    0.3014   -0.2753 H   0  0  0  0  0  0  0  0  0  0  0  0
   -1.3804   -0.9953   -0.2318 H   0  0  0  0  0  0  0  0  0  0  0  0
   -3.9610   -0.7765    1.2912 H   0  0  0  0  0  0  0  0  0  0  0  0
   -2.4182   -1.4763    1.8113 H   0  0  0  0  0  0  0  0  0  0  0  0
   -4.6792   -2.8654    0.7664 H   0  0  0  0  0  0  0  0  0  0  0  0
   -3.0947   -3.5701    1.0432 H   0  0  0  0  0  0  0  0  0  0  0  0
  1  2  1  0  0  0  0
  1 33  1  0  0  0  0
  1 34  1  0  0  0  0
  1 35  1  0  0  0  0
  2  3  1  0  0  0  0
  3  4  1  0  0  0  0
  3 22  2  0  0  0  0
  4  5  2  0  0  0  0
  4 36  1  0  0  0  0
  5  6  1  0  0  0  0
  5 20  1  0  0  0  0
  6  7  1  0  0  0  0
  6 17  2  0  0  0  0
  7  8  1  0  0  0  0
  7 37  1  0  0  0  0
  8  9  1  0  0  0  0
  8 15  2  0  0  0  0
  9 10  2  0  0  0  0
  9 38  1  0  0  0  0
 10 11  1  0  0  0  0
 10 39  1  0  0  0  0
 11 12  1  0  0  0  0
 11 14  2  0  0  0  0
 12 13  3  0  0  0  0
 14 15  1  0  0  0  0
 14 40  1  0  0  0  0
 15 16  1  0  0  0  0
 17 18  1  0  0  0  0
 18 19  2  0  0  0  0
 18 41  1  0  0  0  0
 19 20  1  0  0  0  0
 20 21  2  0  0  0  0
 21 22  1  0  0  0  0
 21 42  1  0  0  0  0
 22 23  1  0  0  0  0
 23 24  1  0  0  0  0
 24 25  1  0  0  0  0
 24 43  1  0  0  0  0
 24 44  1  0  0  0  0
 25 26  2  0  0  0  0
 25 45  1  0  0  0  0
 26 27  1  0  0  0  0
 26 46  1  0  0  0  0
 27 28  1  0  0  0  0
 27 47  1  0  0  0  0
 27 48  1  0  0  0  0
 28 29  1  0  0  0  0
 28 32  1  0  0  0  0
 29 30  1  0  0  0  0
 29 49  1  0  0  0  0
 29 50  1  0  0  0  0
 30 31  1  0  0  0  0
 30 51  1  0  0  0  0
 30 52  1  0  0  0  0
 31 32  1  0  0  0  0
 31 53  1  0  0  0  0
 31 54  1  0  0  0  0
 32 55  1  0  0  0  0
 32 56  1  0  0  0  0
M  END
$$$$
