CHEMBL1242203
 OpenBabel04072215363D

 39 42  0  0  0  0  0  0  0  0999 V2000
    2.8211   -1.2025    0.4205 C   0  0  0  0  0  0  0  0  0  0  0  0
    2.3190    0.0523    0.8630 O   0  0  0  0  0  0  0  0  0  0  0  0
    3.0964    1.1524    0.6156 C   0  0  0  0  0  0  0  0  0  0  0  0
    4.3139    1.1230   -0.0617 C   0  0  0  0  0  0  0  0  0  0  0  0
    5.0623    2.2903   -0.2159 C   0  0  0  0  0  0  0  0  0  0  0  0
    4.5806    3.5290    0.2216 C   0  0  0  0  0  0  0  0  0  0  0  0
    5.3548    4.7577    0.0119 C   0  0  0  0  0  0  0  0  0  0  0  0
    5.2939    5.7428    0.9273 N   0  0  0  0  0  0  0  0  0  0  0  0
    6.1594    6.6843    0.4859 N   0  0  0  0  0  0  0  0  0  0  0  0
    6.3928    7.8438    1.3080 C   0  0  0  0  0  0  0  0  0  0  0  0
    6.0564    9.1772    0.6094 C   0  0  0  0  0  0  0  0  0  0  0  0
    7.2648    9.7705    1.2331 N   0  0  0  0  0  0  0  0  0  0  0  0
    7.8305    8.4029    1.3321 C   0  0  0  0  0  0  0  0  0  0  0  0
    6.7220    6.3652   -0.7291 C   0  0  0  0  0  0  0  0  0  0  0  0
    7.5935    7.0932   -1.4503 N   0  0  0  0  0  0  0  0  0  0  0  0
    7.9797    6.4603   -2.5671 C   0  0  0  0  0  0  0  0  0  0  0  0
    7.5761    5.2615   -3.0109 N   0  0  0  0  0  0  0  0  0  0  0  0
    6.6805    4.5669   -2.2810 C   0  0  0  0  0  0  0  0  0  0  0  0
    6.2871    3.3527   -2.8204 N   0  0  0  0  0  0  0  0  0  0  0  0
    6.2244    5.1131   -1.0663 C   0  0  0  0  0  0  0  0  0  0  0  0
    3.3514    3.5622    0.8982 C   0  0  0  0  0  0  0  0  0  0  0  0
    2.6313    2.3815    1.1024 C   0  0  0  0  0  0  0  0  0  0  0  0
    1.4491    2.4193    1.7958 O   0  0  0  0  0  0  0  0  0  0  0  0
    2.1125   -1.9779    0.7352 H   0  0  0  0  0  0  0  0  0  0  0  0
    3.7873   -1.4316    0.8787 H   0  0  0  0  0  0  0  0  0  0  0  0
    2.8850   -1.2333   -0.6718 H   0  0  0  0  0  0  0  0  0  0  0  0
    4.7259    0.2068   -0.4685 H   0  0  0  0  0  0  0  0  0  0  0  0
    6.0445    2.2046   -0.6735 H   0  0  0  0  0  0  0  0  0  0  0  0
    5.9246    7.7697    2.2988 H   0  0  0  0  0  0  0  0  0  0  0  0
    5.1169    9.6401    0.9303 H   0  0  0  0  0  0  0  0  0  0  0  0
    6.0829    9.1926   -0.4853 H   0  0  0  0  0  0  0  0  0  0  0  0
    7.0854   10.2007    2.1416 H   0  0  0  0  0  0  0  0  0  0  0  0
    8.3803    8.2140    2.2606 H   0  0  0  0  0  0  0  0  0  0  0  0
    8.5045    8.1671    0.5051 H   0  0  0  0  0  0  0  0  0  0  0  0
    8.7019    6.9811   -3.1899 H   0  0  0  0  0  0  0  0  0  0  0  0
    6.5994    3.2745   -3.7849 H   0  0  0  0  0  0  0  0  0  0  0  0
    5.3201    3.1025   -2.6624 H   0  0  0  0  0  0  0  0  0  0  0  0
    2.9722    4.5085    1.2738 H   0  0  0  0  0  0  0  0  0  0  0  0
    1.3079    3.3185    2.1310 H   0  0  0  0  0  0  0  0  0  0  0  0
  1  2  1  0  0  0  0
  1 24  1  0  0  0  0
  1 25  1  0  0  0  0
  1 26  1  0  0  0  0
  2  3  1  0  0  0  0
  3  4  1  0  0  0  0
  3 22  2  0  0  0  0
  4  5  2  0  0  0  0
  4 27  1  0  0  0  0
  5  6  1  0  0  0  0
  5 28  1  0  0  0  0
  6  7  1  0  0  0  0
  6 21  2  0  0  0  0
  7  8  2  0  0  0  0
  7 20  1  0  0  0  0
  8  9  1  0  0  0  0
  9 10  1  0  0  0  0
  9 14  1  0  0  0  0
 10 11  1  0  0  0  0
 10 13  1  0  0  0  0
 10 29  1  0  0  0  0
 11 12  1  0  0  0  0
 11 30  1  0  0  0  0
 11 31  1  0  0  0  0
 12 13  1  0  0  0  0
 12 32  1  0  0  0  0
 13 33  1  0  0  0  0
 13 34  1  0  0  0  0
 14 15  1  0  0  0  0
 14 20  2  0  0  0  0
 15 16  2  0  0  0  0
 16 17  1  0  0  0  0
 16 35  1  0  0  0  0
 17 18  2  0  0  0  0
 18 19  1  0  0  0  0
 18 20  1  0  0  0  0
 19 36  1  0  0  0  0
 19 37  1  0  0  0  0
 21 22  1  0  0  0  0
 21 38  1  0  0  0  0
 22 23  1  0  0  0  0
 23 39  1  0  0  0  0
M  END
$$$$
