CHEMBL387972
 OpenBabel04072215373D

 64 69  0  0  0  0  0  0  0  0999 V2000
   -1.9624   -0.2542    1.0545 C   0  0  0  0  0  0  0  0  0  0  0  0
   -0.4690    0.0607    1.1244 C   0  0  0  0  0  0  0  0  0  0  0  0
    0.3481   -1.1747    0.7340 C   0  0  0  0  0  0  0  0  0  0  0  0
    1.8330   -0.8373    0.5907 C   0  0  0  0  0  0  0  0  0  0  0  0
    2.0891    0.2312   -0.3861 N   0  0  0  0  0  0  0  0  0  0  0  0
    1.7280   -0.1134   -1.7770 C   0  0  0  0  0  0  0  0  0  0  0  0
    2.4618   -1.3140   -2.3514 C   0  0  0  0  0  0  0  0  0  0  0  0
    1.9259   -2.6222   -2.2030 C   0  0  0  0  0  0  0  0  0  0  0  0
    2.5955   -3.7579   -2.6665 C   0  0  0  0  0  0  0  0  0  0  0  0
    3.7836   -3.5530   -3.3192 C   0  0  0  0  0  0  0  0  0  0  0  0
    4.3224   -2.2550   -3.5342 C   0  0  0  0  0  0  0  0  0  0  0  0
    3.6744   -1.1345   -3.0356 C   0  0  0  0  0  0  0  0  0  0  0  0
    5.6307   -2.2692   -4.3428 C   0  0  0  0  0  0  0  0  0  0  0  0
    5.7484   -3.7471   -4.4862 C   0  0  0  0  0  0  0  0  0  0  0  0
    6.5732   -4.7295   -5.0437 C   0  0  0  0  0  0  0  0  0  0  0  0
    7.8171   -4.4546   -5.7729 C   0  0  0  0  0  0  0  0  0  0  0  0
    8.6504   -3.3836   -5.5360 C   0  0  0  0  0  0  0  0  0  0  0  0
    9.9858   -3.3541   -6.6026 S   0  0  0  0  0  0  0  0  0  0  0  0
    9.4777   -4.7924   -7.3756 C   0  0  0  0  0  0  0  0  0  0  0  0
   10.2036   -5.3741   -8.4584 C   0  0  0  0  0  0  0  0  0  0  0  0
   10.8350   -5.8169   -9.3808 C   0  0  0  0  0  0  0  0  0  0  0  0
   11.5951   -6.3003  -10.5432 C   0  0  0  0  0  0  0  0  0  0  0  0
   12.9046   -6.7073  -10.1348 O   0  0  0  0  0  0  0  0  0  0  0  0
   13.6989   -7.2282  -11.1251 C   0  0  0  0  0  0  0  0  0  0  0  0
   13.6311   -6.8805  -12.4754 C   0  0  0  0  0  0  0  0  0  0  0  0
   14.4937   -7.4771  -13.4006 C   0  0  0  0  0  0  0  0  0  0  0  0
   15.4380   -8.4100  -12.9791 C   0  0  0  0  0  0  0  0  0  0  0  0
   15.5321   -8.7378  -11.6280 C   0  0  0  0  0  0  0  0  0  0  0  0
   14.6691   -8.1394  -10.7045 C   0  0  0  0  0  0  0  0  0  0  0  0
    8.3081   -5.2839   -6.8287 C   0  0  0  0  0  0  0  0  0  0  0  0
    6.0726   -5.9648   -4.8370 N   0  0  0  0  0  0  0  0  0  0  0  0
    4.9387   -5.7530   -4.1102 N   0  0  0  0  0  0  0  0  0  0  0  0
    4.7117   -4.4380   -3.9223 C   0  0  0  0  0  0  0  0  0  0  0  0
    1.3901    1.4512    0.0589 C   0  0  0  0  0  0  0  0  0  0  0  0
   -0.1236    1.2675    0.2371 C   0  0  0  0  0  0  0  0  0  0  0  0
   -2.2060   -1.1273    1.6688 H   0  0  0  0  0  0  0  0  0  0  0  0
   -2.2746   -0.4709    0.0271 H   0  0  0  0  0  0  0  0  0  0  0  0
   -2.5553    0.5928    1.4168 H   0  0  0  0  0  0  0  0  0  0  0  0
   -0.2183    0.3150    2.1623 H   0  0  0  0  0  0  0  0  0  0  0  0
   -0.0449   -1.5893   -0.1999 H   0  0  0  0  0  0  0  0  0  0  0  0
    0.2258   -1.9604    1.4882 H   0  0  0  0  0  0  0  0  0  0  0  0
    2.4136   -1.7353    0.3562 H   0  0  0  0  0  0  0  0  0  0  0  0
    2.2159   -0.5155    1.5695 H   0  0  0  0  0  0  0  0  0  0  0  0
    1.9656    0.7481   -2.4167 H   0  0  0  0  0  0  0  0  0  0  0  0
    0.6520   -0.2753   -1.9061 H   0  0  0  0  0  0  0  0  0  0  0  0
    0.9704   -2.7611   -1.7054 H   0  0  0  0  0  0  0  0  0  0  0  0
    2.1824   -4.7472   -2.5149 H   0  0  0  0  0  0  0  0  0  0  0  0
    4.0927   -0.1424   -3.1758 H   0  0  0  0  0  0  0  0  0  0  0  0
    6.4494   -1.8351   -3.7637 H   0  0  0  0  0  0  0  0  0  0  0  0
    5.4947   -1.7747   -5.3076 H   0  0  0  0  0  0  0  0  0  0  0  0
    8.5567   -2.6128   -4.7867 H   0  0  0  0  0  0  0  0  0  0  0  0
   11.6568   -5.4812  -11.2674 H   0  0  0  0  0  0  0  0  0  0  0  0
   11.0696   -7.1493  -10.9968 H   0  0  0  0  0  0  0  0  0  0  0  0
   12.9351   -6.1343  -12.8420 H   0  0  0  0  0  0  0  0  0  0  0  0
   14.4317   -7.2041  -14.4515 H   0  0  0  0  0  0  0  0  0  0  0  0
   16.1052   -8.8757  -13.6999 H   0  0  0  0  0  0  0  0  0  0  0  0
   16.2755   -9.4566  -11.2922 H   0  0  0  0  0  0  0  0  0  0  0  0
   14.7480   -8.4000   -9.6511 H   0  0  0  0  0  0  0  0  0  0  0  0
    7.8142   -6.1840   -7.1750 H   0  0  0  0  0  0  0  0  0  0  0  0
    4.4013   -6.5528   -3.7964 H   0  0  0  0  0  0  0  0  0  0  0  0
    1.5853    2.2753   -0.6383 H   0  0  0  0  0  0  0  0  0  0  0  0
    1.8229    1.7740    1.0151 H   0  0  0  0  0  0  0  0  0  0  0  0
   -0.5978    1.1622   -0.7461 H   0  0  0  0  0  0  0  0  0  0  0  0
   -0.5459    2.1767    0.6821 H   0  0  0  0  0  0  0  0  0  0  0  0
  1  2  1  0  0  0  0
  1 36  1  0  0  0  0
  1 37  1  0  0  0  0
  1 38  1  0  0  0  0
  2  3  1  0  0  0  0
  2 35  1  0  0  0  0
  2 39  1  0  0  0  0
  3  4  1  0  0  0  0
  3 40  1  0  0  0  0
  3 41  1  0  0  0  0
  4  5  1  0  0  0  0
  4 42  1  0  0  0  0
  4 43  1  0  0  0  0
  5  6  1  0  0  0  0
  5 34  1  0  0  0  0
  6  7  1  0  0  0  0
  6 44  1  0  0  0  0
  6 45  1  0  0  0  0
  7  8  1  0  0  0  0
  7 12  2  0  0  0  0
  8  9  2  0  0  0  0
  8 46  1  0  0  0  0
  9 10  1  0  0  0  0
  9 47  1  0  0  0  0
 10 11  2  0  0  0  0
 10 33  1  0  0  0  0
 11 12  1  0  0  0  0
 11 13  1  0  0  0  0
 12 48  1  0  0  0  0
 13 14  1  0  0  0  0
 13 49  1  0  0  0  0
 13 50  1  0  0  0  0
 14 15  1  0  0  0  0
 14 33  2  0  0  0  0
 15 16  1  0  0  0  0
 15 31  2  0  0  0  0
 16 17  2  0  0  0  0
 16 30  1  0  0  0  0
 17 18  1  0  0  0  0
 17 51  1  0  0  0  0
 18 19  1  0  0  0  0
 19 20  1  0  0  0  0
 19 30  2  0  0  0  0
 20 21  3  0  0  0  0
 21 22  1  0  0  0  0
 22 23  1  0  0  0  0
 22 52  1  0  0  0  0
 22 53  1  0  0  0  0
 23 24  1  0  0  0  0
 24 25  1  0  0  0  0
 24 29  2  0  0  0  0
 25 26  2  0  0  0  0
 25 54  1  0  0  0  0
 26 27  1  0  0  0  0
 26 55  1  0  0  0  0
 27 28  2  0  0  0  0
 27 56  1  0  0  0  0
 28 29  1  0  0  0  0
 28 57  1  0  0  0  0
 29 58  1  0  0  0  0
 30 59  1  0  0  0  0
 31 32  1  0  0  0  0
 32 33  1  0  0  0  0
 32 60  1  0  0  0  0
 34 35  1  0  0  0  0
 34 61  1  0  0  0  0
 34 62  1  0  0  0  0
 35 63  1  0  0  0  0
 35 64  1  0  0  0  0
M  END
$$$$
