CHEMBL3703194
 OpenBabel04072215373D

 60 64  0  0  0  0  0  0  0  0999 V2000
   -0.3190    1.0401   -1.6437 C   0  0  0  0  0  0  0  0  0  0  0  0
    0.9562    0.7072   -0.9288 C   0  0  0  0  0  0  0  0  0  0  0  0
    1.3988   -0.5207   -0.5762 C   0  0  0  0  0  0  0  0  0  0  0  0
    0.7151   -1.8361   -0.6329 C   0  0  0  0  0  0  0  0  0  0  0  0
   -0.3981   -1.9227   -1.1470 O   0  0  0  0  0  0  0  0  0  0  0  0
    1.4187   -2.8618   -0.0292 N   0  0  0  0  0  0  0  0  0  0  0  0
    0.9850   -4.1932    0.0360 C   0  0  0  0  0  0  0  0  0  0  0  0
    1.7274   -5.0921    0.7959 C   0  0  0  0  0  0  0  0  0  0  0  0
    1.3131   -6.4265    0.8707 C   0  0  0  0  0  0  0  0  0  0  0  0
    0.1487   -6.8263    0.2187 C   0  0  0  0  0  0  0  0  0  0  0  0
   -0.3751   -8.0975    0.2336 O   0  0  0  0  0  0  0  0  0  0  0  0
   -0.2780   -8.8529    1.3833 C   0  0  0  0  0  0  0  0  0  0  0  0
   -0.3282   -8.3101    2.6623 C   0  0  0  0  0  0  0  0  0  0  0  0
   -0.1381   -9.1625    3.7247 C   0  0  0  0  0  0  0  0  0  0  0  0
    0.0356  -10.4869    3.5870 N   0  0  0  0  0  0  0  0  0  0  0  0
   -0.0044  -11.0233    2.3548 C   0  0  0  0  0  0  0  0  0  0  0  0
    0.1170  -12.4135    2.2007 N   0  0  0  0  0  0  0  0  0  0  0  0
    0.3656  -13.2829    3.2427 C   0  0  0  0  0  0  0  0  0  0  0  0
    0.5644  -13.0100    4.4170 O   0  0  0  0  0  0  0  0  0  0  0  0
    0.3625  -14.7230    2.8294 C   0  0  0  0  0  0  0  0  0  0  0  0
   -0.6522  -15.6583    3.4510 C   0  0  0  0  0  0  0  0  0  0  0  0
    0.7988  -15.7972    3.8043 C   0  0  0  0  0  0  0  0  0  0  0  0
   -0.1696  -10.2365    1.2217 C   0  0  0  0  0  0  0  0  0  0  0  0
   -0.5053   -5.8727   -0.5409 C   0  0  0  0  0  0  0  0  0  0  0  0
   -0.1131   -4.5815   -0.6359 N   0  0  0  0  0  0  0  0  0  0  0  0
    2.8101   -0.3016   -0.1662 C   0  0  0  0  0  0  0  0  0  0  0  0
    3.5263   -1.1937    0.2694 O   0  0  0  0  0  0  0  0  0  0  0  0
    3.0916    1.0552   -0.3564 N   0  0  0  0  0  0  0  0  0  0  0  0
    4.2423    1.6602    0.1772 C   0  0  0  0  0  0  0  0  0  0  0  0
    5.4874    1.1987   -0.2709 C   0  0  0  0  0  0  0  0  0  0  0  0
    6.6686    1.7508    0.2202 C   0  0  0  0  0  0  0  0  0  0  0  0
    6.6131    2.7449    1.1931 C   0  0  0  0  0  0  0  0  0  0  0  0
    5.3767    3.1998    1.6577 C   0  0  0  0  0  0  0  0  0  0  0  0
    4.1894    2.6736    1.1372 C   0  0  0  0  0  0  0  0  0  0  0  0
    1.8804    1.7196   -0.6110 N   0  0  0  0  0  0  0  0  0  0  0  0
    1.9140    3.0050   -1.3044 C   0  0  0  0  0  0  0  0  0  0  0  0
   -0.9986    0.1953   -1.7568 H   0  0  0  0  0  0  0  0  0  0  0  0
   -0.0871    1.3880   -2.6583 H   0  0  0  0  0  0  0  0  0  0  0  0
   -0.8659    1.8318   -1.1255 H   0  0  0  0  0  0  0  0  0  0  0  0
    2.3120   -2.6407    0.4069 H   0  0  0  0  0  0  0  0  0  0  0  0
    2.6060   -4.7733    1.3476 H   0  0  0  0  0  0  0  0  0  0  0  0
    1.8986   -7.1296    1.4567 H   0  0  0  0  0  0  0  0  0  0  0  0
   -0.4844   -7.2532    2.8401 H   0  0  0  0  0  0  0  0  0  0  0  0
   -0.0996   -8.7948    4.7448 H   0  0  0  0  0  0  0  0  0  0  0  0
    0.0013  -12.7924    1.2748 H   0  0  0  0  0  0  0  0  0  0  0  0
    0.6213  -14.9079    1.7918 H   0  0  0  0  0  0  0  0  0  0  0  0
   -1.0987  -16.4219    2.8264 H   0  0  0  0  0  0  0  0  0  0  0  0
   -1.3146  -15.2634    4.2155 H   0  0  0  0  0  0  0  0  0  0  0  0
    1.3405  -16.6520    3.4185 H   0  0  0  0  0  0  0  0  0  0  0  0
    1.1080  -15.4958    4.8009 H   0  0  0  0  0  0  0  0  0  0  0  0
   -0.1997  -10.6698    0.2280 H   0  0  0  0  0  0  0  0  0  0  0  0
   -1.3953   -6.1174   -1.1122 H   0  0  0  0  0  0  0  0  0  0  0  0
    5.5394    0.4199   -1.0287 H   0  0  0  0  0  0  0  0  0  0  0  0
    7.6264    1.3970   -0.1521 H   0  0  0  0  0  0  0  0  0  0  0  0
    7.5344    3.1579    1.5958 H   0  0  0  0  0  0  0  0  0  0  0  0
    5.3413    3.9564    2.4376 H   0  0  0  0  0  0  0  0  0  0  0  0
    3.2351    3.0182    1.5258 H   0  0  0  0  0  0  0  0  0  0  0  0
    2.7637    3.6249   -1.0061 H   0  0  0  0  0  0  0  0  0  0  0  0
    1.0106    3.5749   -1.0575 H   0  0  0  0  0  0  0  0  0  0  0  0
    1.9543    2.8719   -2.3902 H   0  0  0  0  0  0  0  0  0  0  0  0
  1  2  1  0  0  0  0
  1 37  1  0  0  0  0
  1 38  1  0  0  0  0
  1 39  1  0  0  0  0
  2  3  2  0  0  0  0
  2 35  1  0  0  0  0
  3  4  1  0  0  0  0
  3 26  1  0  0  0  0
  4  5  2  0  0  0  0
  4  6  1  0  0  0  0
  6  7  1  0  0  0  0
  6 40  1  0  0  0  0
  7  8  1  0  0  0  0
  7 25  2  0  0  0  0
  8  9  2  0  0  0  0
  8 41  1  0  0  0  0
  9 10  1  0  0  0  0
  9 42  1  0  0  0  0
 10 11  1  0  0  0  0
 10 24  2  0  0  0  0
 11 12  1  0  0  0  0
 12 13  1  0  0  0  0
 12 23  2  0  0  0  0
 13 14  2  0  0  0  0
 13 43  1  0  0  0  0
 14 15  1  0  0  0  0
 14 44  1  0  0  0  0
 15 16  2  0  0  0  0
 16 17  1  0  0  0  0
 16 23  1  0  0  0  0
 17 18  1  0  0  0  0
 17 45  1  0  0  0  0
 18 19  2  0  0  0  0
 18 20  1  0  0  0  0
 20 21  1  0  0  0  0
 20 22  1  0  0  0  0
 20 46  1  0  0  0  0
 21 22  1  0  0  0  0
 21 47  1  0  0  0  0
 21 48  1  0  0  0  0
 22 49  1  0  0  0  0
 22 50  1  0  0  0  0
 23 51  1  0  0  0  0
 24 25  1  0  0  0  0
 24 52  1  0  0  0  0
 26 27  2  0  0  0  0
 26 28  1  0  0  0  0
 28 29  1  0  0  0  0
 28 35  1  0  0  0  0
 29 30  1  0  0  0  0
 29 34  2  0  0  0  0
 30 31  2  0  0  0  0
 30 53  1  0  0  0  0
 31 32  1  0  0  0  0
 31 54  1  0  0  0  0
 32 33  2  0  0  0  0
 32 55  1  0  0  0  0
 33 34  1  0  0  0  0
 33 56  1  0  0  0  0
 34 57  1  0  0  0  0
 35 36  1  0  0  0  0
 36 58  1  0  0  0  0
 36 59  1  0  0  0  0
 36 60  1  0  0  0  0
M  END
$$$$
