CHEMBL4240970
 OpenBabel04072215383D

 42 45  0  0  0  0  0  0  0  0999 V2000
    1.3287    0.9393   -0.4824 C   0  0  0  0  0  0  0  0  0  0  0  0
    2.4039    0.1645    0.0364 O   0  0  0  0  0  0  0  0  0  0  0  0
    3.0401   -0.6317   -0.8849 C   0  0  0  0  0  0  0  0  0  0  0  0
    3.1217   -0.2899   -2.2355 C   0  0  0  0  0  0  0  0  0  0  0  0
    3.7510   -1.1290   -3.1618 C   0  0  0  0  0  0  0  0  0  0  0  0
    4.3487   -2.3184   -2.7657 C   0  0  0  0  0  0  0  0  0  0  0  0
    4.8635   -3.2513   -3.6711 N   0  0  0  0  0  0  0  0  0  0  0  0
    4.9396   -3.3090   -5.0632 C   0  0  0  0  0  0  0  0  0  0  0  0
    5.5652   -4.4054   -5.5285 N   0  0  0  0  0  0  0  0  0  0  0  0
    5.9093   -4.4230   -6.8250 C   0  0  0  0  0  0  0  0  0  0  0  0
    5.6771   -3.3668   -7.6653 C   0  0  0  0  0  0  0  0  0  0  0  0
    4.8903   -2.3472   -7.1549 C   0  0  0  0  0  0  0  0  0  0  0  0
    4.5069   -2.3109   -5.8621 N   0  0  0  0  0  0  0  0  0  0  0  0
    4.6816   -1.1491   -7.9909 C   0  0  0  0  0  0  0  0  0  0  0  0
    3.4153   -0.6727   -8.3480 C   0  0  0  0  0  0  0  0  0  0  0  0
    3.2947    0.4097   -9.2296 C   0  0  0  0  0  0  0  0  0  0  0  0
    4.4279    1.0988   -9.6689 C   0  0  0  0  0  0  0  0  0  0  0  0
    5.6947    0.6225   -9.3548 C   0  0  0  0  0  0  0  0  0  0  0  0
    5.8018   -0.5619   -8.6279 C   0  0  0  0  0  0  0  0  0  0  0  0
    7.2788   -1.5779   -8.8909 S   0  0  0  0  0  0  0  0  0  0  0  0
    6.3519   -3.1772   -8.9810 C   0  0  0  0  0  0  0  0  0  0  0  0
    4.3577   -2.6096   -1.3947 C   0  0  0  0  0  0  0  0  0  0  0  0
    3.6993   -1.7871   -0.4476 C   0  0  0  0  0  0  0  0  0  0  0  0
    3.8058   -2.2467    0.8424 O   0  0  0  0  0  0  0  0  0  0  0  0
    2.6595   -2.0587    1.6626 C   0  0  0  0  0  0  0  0  0  0  0  0
    0.7613    1.3363    0.3638 H   0  0  0  0  0  0  0  0  0  0  0  0
    0.6369    0.3389   -1.0916 H   0  0  0  0  0  0  0  0  0  0  0  0
    1.7031    1.7983   -1.0495 H   0  0  0  0  0  0  0  0  0  0  0  0
    2.6808    0.6212   -2.6224 H   0  0  0  0  0  0  0  0  0  0  0  0
    3.7616   -0.8165   -4.1999 H   0  0  0  0  0  0  0  0  0  0  0  0
    5.3610   -4.0405   -3.2837 H   0  0  0  0  0  0  0  0  0  0  0  0
    6.4571   -5.3027   -7.1482 H   0  0  0  0  0  0  0  0  0  0  0  0
    2.5213   -1.1992   -8.0205 H   0  0  0  0  0  0  0  0  0  0  0  0
    2.3141    0.7070   -9.5952 H   0  0  0  0  0  0  0  0  0  0  0  0
    4.3256    1.9610  -10.3235 H   0  0  0  0  0  0  0  0  0  0  0  0
    6.5778    1.1073   -9.7634 H   0  0  0  0  0  0  0  0  0  0  0  0
    7.0435   -3.9903   -9.2124 H   0  0  0  0  0  0  0  0  0  0  0  0
    5.6092   -3.1268   -9.7897 H   0  0  0  0  0  0  0  0  0  0  0  0
    4.8576   -3.5062   -1.0270 H   0  0  0  0  0  0  0  0  0  0  0  0
    2.7400   -2.7521    2.5059 H   0  0  0  0  0  0  0  0  0  0  0  0
    1.7298   -2.2941    1.1315 H   0  0  0  0  0  0  0  0  0  0  0  0
    2.6350   -1.0489    2.0834 H   0  0  0  0  0  0  0  0  0  0  0  0
  1  2  1  0  0  0  0
  1 26  1  0  0  0  0
  1 27  1  0  0  0  0
  1 28  1  0  0  0  0
  2  3  1  0  0  0  0
  3  4  1  0  0  0  0
  3 23  2  0  0  0  0
  4  5  2  0  0  0  0
  4 29  1  0  0  0  0
  5  6  1  0  0  0  0
  5 30  1  0  0  0  0
  6  7  1  0  0  0  0
  6 22  2  0  0  0  0
  7  8  1  0  0  0  0
  7 31  1  0  0  0  0
  8  9  1  0  0  0  0
  8 13  2  0  0  0  0
  9 10  2  0  0  0  0
 10 11  1  0  0  0  0
 10 32  1  0  0  0  0
 11 12  2  0  0  0  0
 11 21  1  0  0  0  0
 12 13  1  0  0  0  0
 12 14  1  0  0  0  0
 14 15  1  0  0  0  0
 14 19  2  0  0  0  0
 15 16  2  0  0  0  0
 15 33  1  0  0  0  0
 16 17  1  0  0  0  0
 16 34  1  0  0  0  0
 17 18  2  0  0  0  0
 17 35  1  0  0  0  0
 18 19  1  0  0  0  0
 18 36  1  0  0  0  0
 19 20  1  0  0  0  0
 20 21  1  0  0  0  0
 21 37  1  0  0  0  0
 21 38  1  0  0  0  0
 22 23  1  0  0  0  0
 22 39  1  0  0  0  0
 23 24  1  0  0  0  0
 24 25  1  0  0  0  0
 25 40  1  0  0  0  0
 25 41  1  0  0  0  0
 25 42  1  0  0  0  0
M  END
$$$$
