CHEMBL3956001
 OpenBabel04072215373D

 37 40  0  0  0  0  0  0  0  0999 V2000
    0.7742    0.1957    0.3900 N   0  0  0  0  0  0  0  0  0  0  0  0
    2.1418    0.1522    0.3231 C   0  0  0  0  0  0  0  0  0  0  0  0
    3.0351    1.2123    0.4427 C   0  0  0  0  0  0  0  0  0  0  0  0
    2.7419    2.6048    0.5400 C   0  0  0  0  0  0  0  0  0  0  0  0
    1.7368    3.0808    1.0345 O   0  0  0  0  0  0  0  0  0  0  0  0
    3.7762    3.4611   -0.0687 C   0  0  0  0  0  0  0  0  0  0  0  0
    4.7398    3.1265   -1.0080 C   0  0  0  0  0  0  0  0  0  0  0  0
    5.5059    4.2742   -1.2699 C   0  0  0  0  0  0  0  0  0  0  0  0
    6.6114    4.5328   -2.0822 C   0  0  0  0  0  0  0  0  0  0  0  0
    6.6103    5.7324   -2.7664 C   0  0  0  0  0  0  0  0  0  0  0  0
    5.9099    6.7963   -2.2226 C   0  0  0  0  0  0  0  0  0  0  0  0
    5.1395    6.6574   -1.0539 C   0  0  0  0  0  0  0  0  0  0  0  0
    4.8413    5.3469   -0.6963 C   0  0  0  0  0  0  0  0  0  0  0  0
    3.9212    4.8181    0.1733 N   0  0  0  0  0  0  0  0  0  0  0  0
    4.3027    0.5640    0.5107 C   0  0  0  0  0  0  0  0  0  0  0  0
    4.2321   -0.7568    0.3872 N   0  0  0  0  0  0  0  0  0  0  0  0
    2.9039   -1.0191    0.1897 N   0  0  0  0  0  0  0  0  0  0  0  0
    2.5139   -2.3712    0.0411 C   0  0  0  0  0  0  0  0  0  0  0  0
    3.2834   -3.3315    0.7307 C   0  0  0  0  0  0  0  0  0  0  0  0
    2.9019   -4.6710    0.7473 C   0  0  0  0  0  0  0  0  0  0  0  0
    1.7676   -5.0716    0.0531 C   0  0  0  0  0  0  0  0  0  0  0  0
    1.0460   -4.1426   -0.6971 C   0  0  0  0  0  0  0  0  0  0  0  0
    1.4236   -2.7928   -0.7239 C   0  0  0  0  0  0  0  0  0  0  0  0
    0.5903   -1.8003   -1.8692 Cl  0  0  0  0  0  0  0  0  0  0  0  0
    0.3025    1.0794    0.4161 H   0  0  0  0  0  0  0  0  0  0  0  0
    0.2053   -0.5721    0.0394 H   0  0  0  0  0  0  0  0  0  0  0  0
    4.8338    2.1839   -1.5261 H   0  0  0  0  0  0  0  0  0  0  0  0
    7.5362    3.9701   -1.9531 H   0  0  0  0  0  0  0  0  0  0  0  0
    7.2076    5.8388   -3.6649 H   0  0  0  0  0  0  0  0  0  0  0  0
    5.9914    7.7742   -2.6957 H   0  0  0  0  0  0  0  0  0  0  0  0
    4.6747    7.5100   -0.5788 H   0  0  0  0  0  0  0  0  0  0  0  0
    3.3152    5.3463    0.7825 H   0  0  0  0  0  0  0  0  0  0  0  0
    5.2663    1.0122    0.6445 H   0  0  0  0  0  0  0  0  0  0  0  0
    4.1644   -3.0354    1.2999 H   0  0  0  0  0  0  0  0  0  0  0  0
    3.4860   -5.3916    1.3135 H   0  0  0  0  0  0  0  0  0  0  0  0
    1.4571   -6.1145    0.0739 H   0  0  0  0  0  0  0  0  0  0  0  0
    0.1953   -4.4846   -1.2831 H   0  0  0  0  0  0  0  0  0  0  0  0
  1  2  1  0  0  0  0
  1 25  1  0  0  0  0
  1 26  1  0  0  0  0
  2  3  2  0  0  0  0
  2 17  1  0  0  0  0
  3  4  1  0  0  0  0
  3 15  1  0  0  0  0
  4  5  2  0  0  0  0
  4  6  1  0  0  0  0
  6  7  2  0  0  0  0
  6 14  1  0  0  0  0
  7  8  1  0  0  0  0
  7 27  1  0  0  0  0
  8  9  1  0  0  0  0
  8 13  2  0  0  0  0
  9 10  2  0  0  0  0
  9 28  1  0  0  0  0
 10 11  1  0  0  0  0
 10 29  1  0  0  0  0
 11 12  2  0  0  0  0
 11 30  1  0  0  0  0
 12 13  1  0  0  0  0
 12 31  1  0  0  0  0
 13 14  1  0  0  0  0
 14 32  1  0  0  0  0
 15 16  2  0  0  0  0
 15 33  1  0  0  0  0
 16 17  1  0  0  0  0
 17 18  1  0  0  0  0
 18 19  1  0  0  0  0
 18 23  2  0  0  0  0
 19 20  2  0  0  0  0
 19 34  1  0  0  0  0
 20 21  1  0  0  0  0
 20 35  1  0  0  0  0
 21 22  2  0  0  0  0
 21 36  1  0  0  0  0
 22 23  1  0  0  0  0
 22 37  1  0  0  0  0
 23 24  1  0  0  0  0
M  END
$$$$
