CHEMBL236206
 OpenBabel04072215363D

 42 44  0  0  0  0  0  0  0  0999 V2000
    2.1456   -0.0078    1.0735 O   0  0  0  0  0  0  0  0  0  0  0  0
    2.1868    0.1822   -0.1320 C   0  0  0  0  0  0  0  0  0  0  0  0
    1.5000    1.2017   -0.7827 N   0  0  0  0  0  0  0  0  0  0  0  0
    0.5989    2.1262   -0.1906 C   0  0  0  0  0  0  0  0  0  0  0  0
    0.2075    2.0710    1.1476 C   0  0  0  0  0  0  0  0  0  0  0  0
   -0.7153    2.9834    1.6670 C   0  0  0  0  0  0  0  0  0  0  0  0
   -1.2507    3.9817    0.8591 C   0  0  0  0  0  0  0  0  0  0  0  0
   -0.8280    4.1003   -0.4616 C   0  0  0  0  0  0  0  0  0  0  0  0
   -1.2367    5.0659   -1.3337 O   0  0  0  0  0  0  0  0  0  0  0  0
   -1.5979    6.3511   -0.8334 C   0  0  0  0  0  0  0  0  0  0  0  0
   -1.2700    6.5603    0.4588 F   0  0  0  0  0  0  0  0  0  0  0  0
   -0.9605    7.2892   -1.5709 F   0  0  0  0  0  0  0  0  0  0  0  0
   -2.9278    6.5345   -0.9809 F   0  0  0  0  0  0  0  0  0  0  0  0
    0.0603    3.1453   -0.9918 C   0  0  0  0  0  0  0  0  0  0  0  0
    2.9744   -0.6796   -0.9991 C   0  0  0  0  0  0  0  0  0  0  0  0
    2.8665   -0.9018   -2.3668 C   0  0  0  0  0  0  0  0  0  0  0  0
    3.8172   -1.8863   -2.6699 C   0  0  0  0  0  0  0  0  0  0  0  0
    4.5036   -2.2666   -1.5975 N   0  0  0  0  0  0  0  0  0  0  0  0
    3.9814   -1.5367   -0.5841 N   0  0  0  0  0  0  0  0  0  0  0  0
    4.4982   -1.7945    0.7574 C   0  0  0  0  0  0  0  0  0  0  0  0
    6.0196   -1.6225    0.8575 C   0  0  0  0  0  0  0  0  0  0  0  0
    6.6588   -1.8525    2.2134 C   0  0  0  0  0  0  0  0  0  0  0  0
    5.9781   -2.3316    3.3357 C   0  0  0  0  0  0  0  0  0  0  0  0
    6.6843   -2.5196    4.5195 C   0  0  0  0  0  0  0  0  0  0  0  0
    8.0029   -2.2710    4.6633 N   0  0  0  0  0  0  0  0  0  0  0  0
    8.6484   -1.8160    3.5715 C   0  0  0  0  0  0  0  0  0  0  0  0
    8.0309   -1.5959    2.3484 C   0  0  0  0  0  0  0  0  0  0  0  0
    1.6807    1.3280   -1.7693 H   0  0  0  0  0  0  0  0  0  0  0  0
    0.5836    1.3183    1.8313 H   0  0  0  0  0  0  0  0  0  0  0  0
   -1.0128    2.9081    2.7109 H   0  0  0  0  0  0  0  0  0  0  0  0
   -1.9898    4.6469    1.2956 H   0  0  0  0  0  0  0  0  0  0  0  0
    0.3361    3.2257   -2.0409 H   0  0  0  0  0  0  0  0  0  0  0  0
    2.1639   -0.4560   -3.0537 H   0  0  0  0  0  0  0  0  0  0  0  0
    4.0326   -2.3526   -3.6232 H   0  0  0  0  0  0  0  0  0  0  0  0
    4.2009   -2.8215    1.0014 H   0  0  0  0  0  0  0  0  0  0  0  0
    4.0171   -1.1292    1.4717 H   0  0  0  0  0  0  0  0  0  0  0  0
    6.2713   -0.6020    0.5385 H   0  0  0  0  0  0  0  0  0  0  0  0
    6.5089   -2.3070    0.1533 H   0  0  0  0  0  0  0  0  0  0  0  0
    4.9203   -2.5667    3.3193 H   0  0  0  0  0  0  0  0  0  0  0  0
    6.1884   -2.8921    5.4121 H   0  0  0  0  0  0  0  0  0  0  0  0
    9.7098   -1.6275    3.7048 H   0  0  0  0  0  0  0  0  0  0  0  0
    8.6189   -1.2342    1.5106 H   0  0  0  0  0  0  0  0  0  0  0  0
  1  2  2  0  0  0  0
  2  3  1  0  0  0  0
  2 15  1  0  0  0  0
  3  4  1  0  0  0  0
  3 28  1  0  0  0  0
  4  5  1  0  0  0  0
  4 14  2  0  0  0  0
  5  6  2  0  0  0  0
  5 29  1  0  0  0  0
  6  7  1  0  0  0  0
  6 30  1  0  0  0  0
  7  8  2  0  0  0  0
  7 31  1  0  0  0  0
  8  9  1  0  0  0  0
  8 14  1  0  0  0  0
  9 10  1  0  0  0  0
 10 11  1  0  0  0  0
 10 12  1  0  0  0  0
 10 13  1  0  0  0  0
 14 32  1  0  0  0  0
 15 16  2  0  0  0  0
 15 19  1  0  0  0  0
 16 17  1  0  0  0  0
 16 33  1  0  0  0  0
 17 18  2  0  0  0  0
 17 34  1  0  0  0  0
 18 19  1  0  0  0  0
 19 20  1  0  0  0  0
 20 21  1  0  0  0  0
 20 35  1  0  0  0  0
 20 36  1  0  0  0  0
 21 22  1  0  0  0  0
 21 37  1  0  0  0  0
 21 38  1  0  0  0  0
 22 23  1  0  0  0  0
 22 27  2  0  0  0  0
 23 24  2  0  0  0  0
 23 39  1  0  0  0  0
 24 25  1  0  0  0  0
 24 40  1  0  0  0  0
 25 26  2  0  0  0  0
 26 27  1  0  0  0  0
 26 41  1  0  0  0  0
 27 42  1  0  0  0  0
M  END
$$$$
