CHEMBL194176
 OpenBabel04072215363D

 52 55  0  0  0  0  0  0  0  0999 V2000
    9.3767    4.0504    3.3626 C   0  0  0  0  0  0  0  0  0  0  0  0
    8.7274    2.6840    3.2281 C   0  0  0  0  0  0  0  0  0  0  0  0
    7.8917    2.5197    1.6555 S   0  0  0  0  0  0  0  0  0  0  0  0
    6.8695    3.5485    1.5850 O   0  0  0  0  0  0  0  0  0  0  0  0
    8.8887    2.3904    0.6106 O   0  0  0  0  0  0  0  0  0  0  0  0
    7.0463    0.9587    1.7561 C   0  0  0  0  0  0  0  0  0  0  0  0
    5.6586    0.8875    1.6889 C   0  0  0  0  0  0  0  0  0  0  0  0
    5.0287   -0.3597    1.7564 C   0  0  0  0  0  0  0  0  0  0  0  0
    5.7849   -1.5304    1.9129 C   0  0  0  0  0  0  0  0  0  0  0  0
    5.2485   -2.7925    2.0307 O   0  0  0  0  0  0  0  0  0  0  0  0
    3.9138   -2.9627    1.5633 C   0  0  0  0  0  0  0  0  0  0  0  0
    7.1949   -1.4556    2.0087 C   0  0  0  0  0  0  0  0  0  0  0  0
    7.9399   -2.6401    2.2180 N   0  0  0  0  0  0  0  0  0  0  0  0
    9.2225   -2.7005    2.6126 C   0  0  0  0  0  0  0  0  0  0  0  0
   10.1591   -1.7739    2.6242 N   0  0  0  0  0  0  0  0  0  0  0  0
   11.2410   -2.3770    3.1957 C   0  0  0  0  0  0  0  0  0  0  0  0
   10.9328   -3.6773    3.5278 C   0  0  0  0  0  0  0  0  0  0  0  0
   11.6381   -4.7729    4.1654 C   0  0  0  0  0  0  0  0  0  0  0  0
   11.0121   -6.0099    4.3578 C   0  0  0  0  0  0  0  0  0  0  0  0
   11.6889   -7.0566    4.9739 C   0  0  0  0  0  0  0  0  0  0  0  0
   13.0111   -6.8847    5.3797 C   0  0  0  0  0  0  0  0  0  0  0  0
   13.6949   -5.6736    5.1682 C   0  0  0  0  0  0  0  0  0  0  0  0
   15.1310   -5.5418    5.4917 C   0  0  0  0  0  0  0  0  0  0  0  0
   16.0142   -6.6126    5.3432 C   0  0  0  0  0  0  0  0  0  0  0  0
   17.3611   -6.4463    5.6482 C   0  0  0  0  0  0  0  0  0  0  0  0
   17.8047   -5.2096    6.0886 C   0  0  0  0  0  0  0  0  0  0  0  0
   16.8767   -4.1871    6.1974 C   0  0  0  0  0  0  0  0  0  0  0  0
   15.5600   -4.3205    5.9059 N   0  0  0  0  0  0  0  0  0  0  0  0
   12.9711   -4.6143    4.5895 C   0  0  0  0  0  0  0  0  0  0  0  0
    9.6328   -3.8969    3.1329 O   0  0  0  0  0  0  0  0  0  0  0  0
    7.8053   -0.2002    1.8822 C   0  0  0  0  0  0  0  0  0  0  0  0
    9.8961    4.1388    4.3219 H   0  0  0  0  0  0  0  0  0  0  0  0
    8.6280    4.8475    3.3088 H   0  0  0  0  0  0  0  0  0  0  0  0
   10.1040    4.2233    2.5628 H   0  0  0  0  0  0  0  0  0  0  0  0
    7.9862    2.5405    4.0199 H   0  0  0  0  0  0  0  0  0  0  0  0
    9.4870    1.8994    3.2986 H   0  0  0  0  0  0  0  0  0  0  0  0
    5.0608    1.7888    1.5740 H   0  0  0  0  0  0  0  0  0  0  0  0
    3.9452   -0.3814    1.7026 H   0  0  0  0  0  0  0  0  0  0  0  0
    3.6627   -4.0252    1.6446 H   0  0  0  0  0  0  0  0  0  0  0  0
    3.8253   -2.6799    0.5087 H   0  0  0  0  0  0  0  0  0  0  0  0
    3.1963   -2.4127    2.1811 H   0  0  0  0  0  0  0  0  0  0  0  0
    7.3537   -3.4536    2.3665 H   0  0  0  0  0  0  0  0  0  0  0  0
   12.1695   -1.8485    3.3458 H   0  0  0  0  0  0  0  0  0  0  0  0
    9.9876   -6.1694    4.0287 H   0  0  0  0  0  0  0  0  0  0  0  0
   11.1917   -8.0100    5.1271 H   0  0  0  0  0  0  0  0  0  0  0  0
   13.5098   -7.7198    5.8659 H   0  0  0  0  0  0  0  0  0  0  0  0
   15.6679   -7.5714    4.9724 H   0  0  0  0  0  0  0  0  0  0  0  0
   18.0507   -7.2773    5.5342 H   0  0  0  0  0  0  0  0  0  0  0  0
   18.8481   -5.0466    6.3339 H   0  0  0  0  0  0  0  0  0  0  0  0
   17.1801   -3.1987    6.5322 H   0  0  0  0  0  0  0  0  0  0  0  0
   13.4781   -3.6600    4.4480 H   0  0  0  0  0  0  0  0  0  0  0  0
    8.8866   -0.1066    1.8725 H   0  0  0  0  0  0  0  0  0  0  0  0
  1  2  1  0  0  0  0
  1 32  1  0  0  0  0
  1 33  1  0  0  0  0
  1 34  1  0  0  0  0
  2  3  1  0  0  0  0
  2 35  1  0  0  0  0
  2 36  1  0  0  0  0
  3  4  2  0  0  0  0
  3  5  2  0  0  0  0
  3  6  1  0  0  0  0
  6  7  1  0  0  0  0
  6 31  2  0  0  0  0
  7  8  2  0  0  0  0
  7 37  1  0  0  0  0
  8  9  1  0  0  0  0
  8 38  1  0  0  0  0
  9 10  1  0  0  0  0
  9 12  2  0  0  0  0
 10 11  1  0  0  0  0
 11 39  1  0  0  0  0
 11 40  1  0  0  0  0
 11 41  1  0  0  0  0
 12 13  1  0  0  0  0
 12 31  1  0  0  0  0
 13 14  1  0  0  0  0
 13 42  1  0  0  0  0
 14 15  2  0  0  0  0
 14 30  1  0  0  0  0
 15 16  1  0  0  0  0
 16 17  2  0  0  0  0
 16 43  1  0  0  0  0
 17 18  1  0  0  0  0
 17 30  1  0  0  0  0
 18 19  1  0  0  0  0
 18 29  2  0  0  0  0
 19 20  2  0  0  0  0
 19 44  1  0  0  0  0
 20 21  1  0  0  0  0
 20 45  1  0  0  0  0
 21 22  2  0  0  0  0
 21 46  1  0  0  0  0
 22 23  1  0  0  0  0
 22 29  1  0  0  0  0
 23 24  1  0  0  0  0
 23 28  2  0  0  0  0
 24 25  2  0  0  0  0
 24 47  1  0  0  0  0
 25 26  1  0  0  0  0
 25 48  1  0  0  0  0
 26 27  2  0  0  0  0
 26 49  1  0  0  0  0
 27 28  1  0  0  0  0
 27 50  1  0  0  0  0
 29 51  1  0  0  0  0
 31 52  1  0  0  0  0
M  END
$$$$
