CHEMBL1254924
 OpenBabel04072215363D

 44 47  0  0  0  0  0  0  0  0999 V2000
    3.6783   -0.8178   -1.2286 C   0  0  0  0  0  0  0  0  0  0  0  0
    3.4714   -0.4781    0.1609 N   0  0  0  0  0  0  0  0  0  0  0  0
    4.0839    0.5741    0.7989 C   0  0  0  0  0  0  0  0  0  0  0  0
    3.6308    0.6013    2.0989 C   0  0  0  0  0  0  0  0  0  0  0  0
    2.7121   -0.4620    2.2464 C   0  0  0  0  0  0  0  0  0  0  0  0
    2.0152   -0.8267    3.3418 N   0  0  0  0  0  0  0  0  0  0  0  0
    1.2144   -1.8786    3.1364 C   0  0  0  0  0  0  0  0  0  0  0  0
    1.0561   -2.5855    2.0059 N   0  0  0  0  0  0  0  0  0  0  0  0
    1.8033   -2.2466    0.9302 C   0  0  0  0  0  0  0  0  0  0  0  0
    1.7063   -2.9987   -0.2392 O   0  0  0  0  0  0  0  0  0  0  0  0
    1.5473   -4.3670   -0.1008 C   0  0  0  0  0  0  0  0  0  0  0  0
    2.1255   -5.0876    0.9488 C   0  0  0  0  0  0  0  0  0  0  0  0
    1.9262   -6.4561    1.0435 C   0  0  0  0  0  0  0  0  0  0  0  0
    1.1930   -7.1177    0.0691 C   0  0  0  0  0  0  0  0  0  0  0  0
    0.6286   -6.4337   -1.0147 C   0  0  0  0  0  0  0  0  0  0  0  0
   -0.1067   -7.0938   -2.0374 N   0  0  0  0  0  0  0  0  0  0  0  0
   -0.4903   -8.4273   -2.0144 C   0  0  0  0  0  0  0  0  0  0  0  0
   -0.3407   -9.1856   -1.0617 O   0  0  0  0  0  0  0  0  0  0  0  0
   -1.0269   -8.8479   -3.2293 N   0  0  0  0  0  0  0  0  0  0  0  0
   -1.3930  -10.2115   -3.3850 C   0  0  0  0  0  0  0  0  0  0  0  0
   -2.1519  -10.8765   -2.4136 C   0  0  0  0  0  0  0  0  0  0  0  0
   -2.3752  -12.2503   -2.5073 C   0  0  0  0  0  0  0  0  0  0  0  0
   -1.8395  -12.9677   -3.5733 C   0  0  0  0  0  0  0  0  0  0  0  0
   -1.1187  -12.3032   -4.5665 C   0  0  0  0  0  0  0  0  0  0  0  0
   -0.9180  -10.9213   -4.4893 C   0  0  0  0  0  0  0  0  0  0  0  0
    0.8257   -5.0450   -1.0986 C   0  0  0  0  0  0  0  0  0  0  0  0
    2.6294   -1.1331    1.0296 C   0  0  0  0  0  0  0  0  0  0  0  0
    4.3912   -0.1167   -1.6729 H   0  0  0  0  0  0  0  0  0  0  0  0
    2.7201   -0.7415   -1.7467 H   0  0  0  0  0  0  0  0  0  0  0  0
    4.0783   -1.8324   -1.2844 H   0  0  0  0  0  0  0  0  0  0  0  0
    4.7905    1.2146    0.2866 H   0  0  0  0  0  0  0  0  0  0  0  0
    3.9264    1.3070    2.8630 H   0  0  0  0  0  0  0  0  0  0  0  0
    0.6310   -2.2091    3.9900 H   0  0  0  0  0  0  0  0  0  0  0  0
    2.7139   -4.5970    1.7183 H   0  0  0  0  0  0  0  0  0  0  0  0
    2.3370   -7.0151    1.8797 H   0  0  0  0  0  0  0  0  0  0  0  0
    1.0793   -8.1908    0.1962 H   0  0  0  0  0  0  0  0  0  0  0  0
   -0.5037   -6.5209   -2.7694 H   0  0  0  0  0  0  0  0  0  0  0  0
   -0.6131   -8.4083   -4.0379 H   0  0  0  0  0  0  0  0  0  0  0  0
   -2.5483  -10.3360   -1.5568 H   0  0  0  0  0  0  0  0  0  0  0  0
   -2.9384  -12.7598   -1.7299 H   0  0  0  0  0  0  0  0  0  0  0  0
   -1.9717  -14.0455   -3.6211 H   0  0  0  0  0  0  0  0  0  0  0  0
   -0.6833  -12.8707   -5.3849 H   0  0  0  0  0  0  0  0  0  0  0  0
   -0.3180  -10.4340   -5.2516 H   0  0  0  0  0  0  0  0  0  0  0  0
    0.4144   -4.4745   -1.9273 H   0  0  0  0  0  0  0  0  0  0  0  0
  1  2  1  0  0  0  0
  1 28  1  0  0  0  0
  1 29  1  0  0  0  0
  1 30  1  0  0  0  0
  2  3  1  0  0  0  0
  2 27  1  0  0  0  0
  3  4  2  0  0  0  0
  3 31  1  0  0  0  0
  4  5  1  0  0  0  0
  4 32  1  0  0  0  0
  5  6  1  0  0  0  0
  5 27  2  0  0  0  0
  6  7  2  0  0  0  0
  7  8  1  0  0  0  0
  7 33  1  0  0  0  0
  8  9  2  0  0  0  0
  9 10  1  0  0  0  0
  9 27  1  0  0  0  0
 10 11  1  0  0  0  0
 11 12  1  0  0  0  0
 11 26  2  0  0  0  0
 12 13  2  0  0  0  0
 12 34  1  0  0  0  0
 13 14  1  0  0  0  0
 13 35  1  0  0  0  0
 14 15  2  0  0  0  0
 14 36  1  0  0  0  0
 15 16  1  0  0  0  0
 15 26  1  0  0  0  0
 16 17  1  0  0  0  0
 16 37  1  0  0  0  0
 17 18  2  0  0  0  0
 17 19  1  0  0  0  0
 19 20  1  0  0  0  0
 19 38  1  0  0  0  0
 20 21  1  0  0  0  0
 20 25  2  0  0  0  0
 21 22  2  0  0  0  0
 21 39  1  0  0  0  0
 22 23  1  0  0  0  0
 22 40  1  0  0  0  0
 23 24  2  0  0  0  0
 23 41  1  0  0  0  0
 24 25  1  0  0  0  0
 24 42  1  0  0  0  0
 25 43  1  0  0  0  0
 26 44  1  0  0  0  0
M  END
$$$$
