CHEMBL512862
 OpenBabel04072215383D

 39 41  0  0  0  0  0  0  0  0999 V2000
    1.2334   -0.6910    0.4157 O   0  0  0  0  0  0  0  0  0  0  0  0
    2.2040   -0.0440    0.0243 C   0  0  0  0  0  0  0  0  0  0  0  0
    2.6681   -0.0210   -1.2841 N   0  0  0  0  0  0  0  0  0  0  0  0
    2.0605   -0.6566   -2.3855 C   0  0  0  0  0  0  0  0  0  0  0  0
    0.7358   -1.0953   -2.3615 C   0  0  0  0  0  0  0  0  0  0  0  0
    0.1781   -1.7520   -3.4588 C   0  0  0  0  0  0  0  0  0  0  0  0
    0.9336   -1.9885   -4.6158 C   0  0  0  0  0  0  0  0  0  0  0  0
    0.3084   -2.7212   -5.7720 C   0  0  0  0  0  0  0  0  0  0  0  0
   -0.9853   -3.0888   -5.5304 F   0  0  0  0  0  0  0  0  0  0  0  0
    0.2614   -1.9787   -6.9114 F   0  0  0  0  0  0  0  0  0  0  0  0
    0.9542   -3.8769   -6.0872 F   0  0  0  0  0  0  0  0  0  0  0  0
    2.2544   -1.5252   -4.6481 C   0  0  0  0  0  0  0  0  0  0  0  0
    3.2697   -1.7776   -6.0224 Cl  0  0  0  0  0  0  0  0  0  0  0  0
    2.8092   -0.8498   -3.5480 C   0  0  0  0  0  0  0  0  0  0  0  0
    2.9944    0.7733    0.9652 C   0  0  0  0  0  0  0  0  0  0  0  0
    3.9995    1.5426    0.5183 N   0  0  0  0  0  0  0  0  0  0  0  0
    4.6373    2.3848    1.7964 S   0  0  0  0  0  0  0  0  0  0  0  0
    3.5987    1.7377    2.9886 C   0  0  0  0  0  0  0  0  0  0  0  0
    2.7439    0.8389    2.3923 C   0  0  0  0  0  0  0  0  0  0  0  0
    1.8150    0.0752    3.0331 N   0  0  0  0  0  0  0  0  0  0  0  0
    1.1153    0.4668    4.2421 C   0  0  0  0  0  0  0  0  0  0  0  0
    1.3500   -0.5510    5.3283 C   0  0  0  0  0  0  0  0  0  0  0  0
    2.6447   -0.8055    5.7969 C   0  0  0  0  0  0  0  0  0  0  0  0
    2.8187   -1.7325    6.8132 C   0  0  0  0  0  0  0  0  0  0  0  0
    1.8065   -2.4102    7.3907 N   0  0  0  0  0  0  0  0  0  0  0  0
    0.5648   -2.1582    6.9218 C   0  0  0  0  0  0  0  0  0  0  0  0
    0.2885   -1.2527    5.9073 C   0  0  0  0  0  0  0  0  0  0  0  0
    3.5684    0.4347   -1.4100 H   0  0  0  0  0  0  0  0  0  0  0  0
    0.0920   -0.9243   -1.5033 H   0  0  0  0  0  0  0  0  0  0  0  0
   -0.8585   -2.0823   -3.3950 H   0  0  0  0  0  0  0  0  0  0  0  0
    3.8399   -0.5057   -3.5997 H   0  0  0  0  0  0  0  0  0  0  0  0
    3.6867    2.0208    4.0266 H   0  0  0  0  0  0  0  0  0  0  0  0
    1.2694   -0.5831    2.4639 H   0  0  0  0  0  0  0  0  0  0  0  0
    0.0446    0.5283    4.0102 H   0  0  0  0  0  0  0  0  0  0  0  0
    1.4067    1.4582    4.6058 H   0  0  0  0  0  0  0  0  0  0  0  0
    3.5044   -0.3003    5.3726 H   0  0  0  0  0  0  0  0  0  0  0  0
    3.8085   -1.9556    7.1991 H   0  0  0  0  0  0  0  0  0  0  0  0
   -0.2304   -2.7242    7.3983 H   0  0  0  0  0  0  0  0  0  0  0  0
   -0.7359   -1.1027    5.5842 H   0  0  0  0  0  0  0  0  0  0  0  0
  1  2  2  0  0  0  0
  2  3  1  0  0  0  0
  2 15  1  0  0  0  0
  3  4  1  0  0  0  0
  3 28  1  0  0  0  0
  4  5  1  0  0  0  0
  4 14  2  0  0  0  0
  5  6  2  0  0  0  0
  5 29  1  0  0  0  0
  6  7  1  0  0  0  0
  6 30  1  0  0  0  0
  7  8  1  0  0  0  0
  7 12  2  0  0  0  0
  8  9  1  0  0  0  0
  8 10  1  0  0  0  0
  8 11  1  0  0  0  0
 12 13  1  0  0  0  0
 12 14  1  0  0  0  0
 14 31  1  0  0  0  0
 15 16  2  0  0  0  0
 15 19  1  0  0  0  0
 16 17  1  0  0  0  0
 17 18  1  0  0  0  0
 18 19  2  0  0  0  0
 18 32  1  0  0  0  0
 19 20  1  0  0  0  0
 20 21  1  0  0  0  0
 20 33  1  0  0  0  0
 21 22  1  0  0  0  0
 21 34  1  0  0  0  0
 21 35  1  0  0  0  0
 22 23  1  0  0  0  0
 22 27  2  0  0  0  0
 23 24  2  0  0  0  0
 23 36  1  0  0  0  0
 24 25  1  0  0  0  0
 24 37  1  0  0  0  0
 25 26  2  0  0  0  0
 26 27  1  0  0  0  0
 26 38  1  0  0  0  0
 27 39  1  0  0  0  0
M  END
$$$$
