CHEMBL2112040
 OpenBabel04072215363D

 64 69  0  0  1  0  0  0  0  0999 V2000
    0.9863    3.6889   -4.6719 C   0  0  0  0  0  0  0  0  0  0  0  0
    2.4517    3.6082   -4.2807 C   0  0  0  0  0  0  0  0  0  0  0  0
    2.6963    2.9233   -2.9286 C   0  0  2  0  0  0  0  0  0  0  0  0
    2.0392    3.6658   -1.7698 C   0  0  0  0  0  0  0  0  0  0  0  0
    4.1103    2.9084   -2.7406 O   0  0  0  0  0  0  0  0  0  0  0  0
    4.5411    2.1006   -1.6465 C   0  0  0  0  0  0  0  0  0  0  0  0
    6.0395    2.0974   -1.7021 C   0  0  0  0  0  0  0  0  0  0  0  0
    6.7263    0.9125   -1.9644 C   0  0  0  0  0  0  0  0  0  0  0  0
    8.1106    0.9002   -2.1733 C   0  0  0  0  0  0  0  0  0  0  0  0
    8.7838    2.1148   -2.1032 C   0  0  0  0  0  0  0  0  0  0  0  0
    8.1083    3.3121   -1.7620 C   0  0  0  0  0  0  0  0  0  0  0  0
    6.7306    3.3011   -1.5265 C   0  0  0  0  0  0  0  0  0  0  0  0
    9.1349    4.2081   -1.7041 C   0  0  0  0  0  0  0  0  0  0  0  0
    9.2350    5.4183   -0.9670 C   0  0  0  0  0  0  0  0  0  0  0  0
   10.6080    5.7997   -0.6040 C   0  0  0  0  0  0  0  0  0  0  0  0
   11.6689    5.0528   -1.1347 C   0  0  0  0  0  0  0  0  0  0  0  0
   11.2878    4.6788   -2.4253 C   0  0  0  0  0  0  0  0  0  0  0  0
   10.2404    3.8152   -2.4135 C   0  0  0  0  0  0  0  0  0  0  0  0
   10.1465    2.4228   -2.2479 N   0  0  0  0  0  0  0  0  0  0  0  0
   11.2100    1.5949   -1.6640 C   0  0  0  0  0  0  0  0  0  0  0  0
   11.2201    0.0802   -1.8859 C   0  0  0  0  0  0  0  0  0  0  0  0
   12.3861   -0.6285   -1.1959 C   0  0  0  0  0  0  0  0  0  0  0  0
   12.3495   -2.0181   -1.5117 O   0  0  0  0  0  0  0  0  0  0  0  0
   12.3714    4.9934   -3.3639 C   0  0  0  0  0  0  0  0  0  0  0  0
   13.4712    4.4446   -2.5091 C   0  0  0  0  0  0  0  0  0  0  0  0
   14.2764    3.4359   -3.0451 C   0  0  0  0  0  0  0  0  0  0  0  0
   14.7205    2.4542   -2.1853 C   0  0  0  0  0  0  0  0  0  0  0  0
   14.4174    2.5517   -0.8138 C   0  0  0  0  0  0  0  0  0  0  0  0
   13.6141    3.6100   -0.2751 C   0  0  0  0  0  0  0  0  0  0  0  0
   13.0789    4.5941   -1.1241 C   0  0  0  0  0  0  0  0  0  0  0  0
   10.5218    7.2125   -0.3136 C   0  0  0  0  0  0  0  0  0  0  0  0
   11.3753    8.0786   -0.1393 O   0  0  0  0  0  0  0  0  0  0  0  0
    9.1611    7.5516   -0.4867 N   0  0  0  0  0  0  0  0  0  0  0  0
    8.2588    6.4757   -0.8586 C   0  0  0  0  0  0  0  0  0  0  0  0
    0.8867    4.1166   -5.6744 H   0  0  0  0  0  0  0  0  0  0  0  0
    0.4246    4.3295   -3.9861 H   0  0  0  0  0  0  0  0  0  0  0  0
    0.5261    2.6960   -4.6776 H   0  0  0  0  0  0  0  0  0  0  0  0
    2.8882    4.6151   -4.2751 H   0  0  0  0  0  0  0  0  0  0  0  0
    2.9987    3.0596   -5.0592 H   0  0  0  0  0  0  0  0  0  0  0  0
    2.3312    1.8908   -2.9810 H   0  0  0  0  0  0  0  0  0  0  0  0
    2.4512    4.6771   -1.6802 H   0  0  0  0  0  0  0  0  0  0  0  0
    2.2361    3.1639   -0.8176 H   0  0  0  0  0  0  0  0  0  0  0  0
    0.9561    3.7210   -1.8803 H   0  0  0  0  0  0  0  0  0  0  0  0
    4.1372    1.0872   -1.7516 H   0  0  0  0  0  0  0  0  0  0  0  0
    4.2270    2.5161   -0.6869 H   0  0  0  0  0  0  0  0  0  0  0  0
    6.1871   -0.0255   -2.0368 H   0  0  0  0  0  0  0  0  0  0  0  0
    8.5951   -0.0340   -2.3994 H   0  0  0  0  0  0  0  0  0  0  0  0
    6.1943    4.2237   -1.3187 H   0  0  0  0  0  0  0  0  0  0  0  0
   11.1996    1.8031   -0.5832 H   0  0  0  0  0  0  0  0  0  0  0  0
   12.1288    1.9747   -2.0868 H   0  0  0  0  0  0  0  0  0  0  0  0
   11.2400   -0.1361   -2.9594 H   0  0  0  0  0  0  0  0  0  0  0  0
   10.3201   -0.3829   -1.4808 H   0  0  0  0  0  0  0  0  0  0  0  0
   12.3316   -0.5301   -0.1059 H   0  0  0  0  0  0  0  0  0  0  0  0
   13.3534   -0.2456   -1.5280 H   0  0  0  0  0  0  0  0  0  0  0  0
   11.5393   -2.3932   -1.1246 H   0  0  0  0  0  0  0  0  0  0  0  0
   12.5188    6.0881   -3.4137 H   0  0  0  0  0  0  0  0  0  0  0  0
   12.2434    4.5994   -4.3660 H   0  0  0  0  0  0  0  0  0  0  0  0
   14.3201    3.2961   -4.1250 H   0  0  0  0  0  0  0  0  0  0  0  0
   15.1719    1.5545   -2.6048 H   0  0  0  0  0  0  0  0  0  0  0  0
   14.7024    1.7067   -0.1848 H   0  0  0  0  0  0  0  0  0  0  0  0
   13.2566    3.4863    0.7457 H   0  0  0  0  0  0  0  0  0  0  0  0
    8.9366    8.5132   -0.7125 H   0  0  0  0  0  0  0  0  0  0  0  0
    7.8162    6.6771   -1.8407 H   0  0  0  0  0  0  0  0  0  0  0  0
    7.4870    6.3393   -0.0968 H   0  0  0  0  0  0  0  0  0  0  0  0
  1  2  1  0  0  0  0
  1 35  1  0  0  0  0
  1 36  1  0  0  0  0
  1 37  1  0  0  0  0
  2 38  1  0  0  0  0
  2 39  1  0  0  0  0
  3  5  1  0  0  0  0
  3  4  1  0  0  0  0
  3  2  1  0  0  0  0
  3 40  1  6  0  0  0
  4 41  1  0  0  0  0
  4 42  1  0  0  0  0
  4 43  1  0  0  0  0
  5  6  1  0  0  0  0
  6  7  1  0  0  0  0
  6 44  1  0  0  0  0
  6 45  1  0  0  0  0
  7  8  1  0  0  0  0
  7 12  2  0  0  0  0
  8  9  2  0  0  0  0
  8 46  1  0  0  0  0
  9 10  1  0  0  0  0
  9 47  1  0  0  0  0
 10 11  2  0  0  0  0
 10 19  1  0  0  0  0
 11 12  1  0  0  0  0
 11 13  1  0  0  0  0
 12 48  1  0  0  0  0
 13 14  1  0  0  0  0
 13 18  2  0  0  0  0
 14 15  2  0  0  0  0
 14 34  1  0  0  0  0
 15 16  1  0  0  0  0
 15 31  1  0  0  0  0
 16 17  2  0  0  0  0
 16 30  1  0  0  0  0
 17 18  1  0  0  0  0
 17 24  1  0  0  0  0
 18 19  1  0  0  0  0
 19 20  1  0  0  0  0
 20 21  1  0  0  0  0
 20 49  1  0  0  0  0
 20 50  1  0  0  0  0
 21 22  1  0  0  0  0
 21 51  1  0  0  0  0
 21 52  1  0  0  0  0
 22 23  1  0  0  0  0
 22 53  1  0  0  0  0
 22 54  1  0  0  0  0
 23 55  1  0  0  0  0
 24 25  1  0  0  0  0
 24 56  1  0  0  0  0
 24 57  1  0  0  0  0
 25 26  1  0  0  0  0
 25 30  2  0  0  0  0
 26 27  2  0  0  0  0
 26 58  1  0  0  0  0
 27 28  1  0  0  0  0
 27 59  1  0  0  0  0
 28 29  2  0  0  0  0
 28 60  1  0  0  0  0
 29 30  1  0  0  0  0
 29 61  1  0  0  0  0
 31 32  2  0  0  0  0
 31 33  1  0  0  0  0
 33 34  1  0  0  0  0
 33 62  1  0  0  0  0
 34 63  1  0  0  0  0
 34 64  1  0  0  0  0
M  END
$$$$
