CHEMBL3702668
 OpenBabel04072215373D

 55 58  0  0  0  0  0  0  0  0999 V2000
    2.4802    0.0328   -0.0525 C   0  0  0  0  0  0  0  0  0  0  0  0
    0.9738   -0.0247    0.0171 C   0  0  0  0  0  0  0  0  0  0  0  0
    0.2628    1.1959    0.0565 C   0  0  0  0  0  0  0  0  0  0  0  0
   -1.1346    1.2265    0.0565 C   0  0  0  0  0  0  0  0  0  0  0  0
   -1.8341    0.0254    0.0425 C   0  0  0  0  0  0  0  0  0  0  0  0
   -3.3164   -0.0566    0.1126 C   0  0  0  0  0  0  0  0  0  0  0  0
   -3.7794   -1.0160    0.7232 O   0  0  0  0  0  0  0  0  0  0  0  0
   -4.0456    0.9023   -0.5756 N   0  0  0  0  0  0  0  0  0  0  0  0
   -5.4645    0.9318   -0.6598 C   0  0  0  0  0  0  0  0  0  0  0  0
   -6.2834    0.2051    0.2078 C   0  0  0  0  0  0  0  0  0  0  0  0
   -7.6695    0.2004    0.0540 C   0  0  0  0  0  0  0  0  0  0  0  0
   -8.2590    0.9297   -0.9717 C   0  0  0  0  0  0  0  0  0  0  0  0
   -7.4717    1.6872   -1.8512 C   0  0  0  0  0  0  0  0  0  0  0  0
   -8.1109    2.4285   -3.0157 C   0  0  0  0  0  0  0  0  0  0  0  0
   -8.7870    1.4501   -3.9842 C   0  0  0  0  0  0  0  0  0  0  0  0
   -9.1138    3.4887   -2.5508 C   0  0  0  0  0  0  0  0  0  0  0  0
   -6.0712    1.7002   -1.6676 C   0  0  0  0  0  0  0  0  0  0  0  0
   -1.1306   -1.1915    0.0272 C   0  0  0  0  0  0  0  0  0  0  0  0
    0.2714   -1.2521   -0.0031 C   0  0  0  0  0  0  0  0  0  0  0  0
    0.9466   -2.4750   -0.1162 N   0  0  0  0  0  0  0  0  0  0  0  0
    0.2581   -3.5801   -0.8115 C   0  0  0  0  0  0  0  0  0  0  0  0
    1.3141   -4.5130   -1.3999 C   0  0  0  0  0  0  0  0  0  0  0  0
    2.4080   -4.8283   -0.4134 C   0  0  0  0  0  0  0  0  0  0  0  0
    3.2448   -5.8344   -0.7519 N   0  0  0  0  0  0  0  0  0  0  0  0
    4.2600   -6.0696    0.0965 C   0  0  0  0  0  0  0  0  0  0  0  0
    4.5039   -5.4090    1.2393 N   0  0  0  0  0  0  0  0  0  0  0  0
    3.6428   -4.4155    1.5340 C   0  0  0  0  0  0  0  0  0  0  0  0
    2.5757   -4.0611    0.7326 C   0  0  0  0  0  0  0  0  0  0  0  0
    1.6321   -2.9503    1.1000 C   0  0  0  0  0  0  0  0  0  0  0  0
    2.8367    1.0619   -0.1679 H   0  0  0  0  0  0  0  0  0  0  0  0
    2.8499   -0.5380   -0.9102 H   0  0  0  0  0  0  0  0  0  0  0  0
    2.9311   -0.3494    0.8665 H   0  0  0  0  0  0  0  0  0  0  0  0
    0.8079    2.1385    0.0754 H   0  0  0  0  0  0  0  0  0  0  0  0
   -1.6485    2.1819    0.1038 H   0  0  0  0  0  0  0  0  0  0  0  0
   -3.5426    1.5187   -1.2007 H   0  0  0  0  0  0  0  0  0  0  0  0
   -5.8750   -0.3775    1.0266 H   0  0  0  0  0  0  0  0  0  0  0  0
   -8.2825   -0.3906    0.7290 H   0  0  0  0  0  0  0  0  0  0  0  0
   -9.3395    0.8864   -1.0871 H   0  0  0  0  0  0  0  0  0  0  0  0
   -7.3234    2.9495   -3.5751 H   0  0  0  0  0  0  0  0  0  0  0  0
   -9.6021    0.8934   -3.5059 H   0  0  0  0  0  0  0  0  0  0  0  0
   -8.0667    0.7192   -4.3676 H   0  0  0  0  0  0  0  0  0  0  0  0
   -9.2143    1.9827   -4.8405 H   0  0  0  0  0  0  0  0  0  0  0  0
   -9.9625    3.0479   -2.0162 H   0  0  0  0  0  0  0  0  0  0  0  0
   -9.5167    4.0372   -3.4099 H   0  0  0  0  0  0  0  0  0  0  0  0
   -8.6374    4.2143   -1.8833 H   0  0  0  0  0  0  0  0  0  0  0  0
   -5.4561    2.2825   -2.3493 H   0  0  0  0  0  0  0  0  0  0  0  0
   -1.7106   -2.1121    0.0417 H   0  0  0  0  0  0  0  0  0  0  0  0
   -0.3761   -3.2201   -1.6306 H   0  0  0  0  0  0  0  0  0  0  0  0
   -0.3836   -4.1300   -0.1080 H   0  0  0  0  0  0  0  0  0  0  0  0
    1.7762   -4.0302   -2.2696 H   0  0  0  0  0  0  0  0  0  0  0  0
    0.8395   -5.4390   -1.7437 H   0  0  0  0  0  0  0  0  0  0  0  0
    4.9514   -6.8586   -0.1737 H   0  0  0  0  0  0  0  0  0  0  0  0
    3.8546   -3.8909    2.4618 H   0  0  0  0  0  0  0  0  0  0  0  0
    2.1925   -2.1529    1.5935 H   0  0  0  0  0  0  0  0  0  0  0  0
    0.8987   -3.3296    1.8241 H   0  0  0  0  0  0  0  0  0  0  0  0
  1  2  1  0  0  0  0
  1 30  1  0  0  0  0
  1 31  1  0  0  0  0
  1 32  1  0  0  0  0
  2  3  1  0  0  0  0
  2 19  2  0  0  0  0
  3  4  2  0  0  0  0
  3 33  1  0  0  0  0
  4  5  1  0  0  0  0
  4 34  1  0  0  0  0
  5  6  1  0  0  0  0
  5 18  2  0  0  0  0
  6  7  2  0  0  0  0
  6  8  1  0  0  0  0
  8  9  1  0  0  0  0
  8 35  1  0  0  0  0
  9 10  1  0  0  0  0
  9 17  2  0  0  0  0
 10 11  2  0  0  0  0
 10 36  1  0  0  0  0
 11 12  1  0  0  0  0
 11 37  1  0  0  0  0
 12 13  2  0  0  0  0
 12 38  1  0  0  0  0
 13 14  1  0  0  0  0
 13 17  1  0  0  0  0
 14 15  1  0  0  0  0
 14 16  1  0  0  0  0
 14 39  1  0  0  0  0
 15 40  1  0  0  0  0
 15 41  1  0  0  0  0
 15 42  1  0  0  0  0
 16 43  1  0  0  0  0
 16 44  1  0  0  0  0
 16 45  1  0  0  0  0
 17 46  1  0  0  0  0
 18 19  1  0  0  0  0
 18 47  1  0  0  0  0
 19 20  1  0  0  0  0
 20 21  1  0  0  0  0
 20 29  1  0  0  0  0
 21 22  1  0  0  0  0
 21 48  1  0  0  0  0
 21 49  1  0  0  0  0
 22 23  1  0  0  0  0
 22 50  1  0  0  0  0
 22 51  1  0  0  0  0
 23 24  1  0  0  0  0
 23 28  2  0  0  0  0
 24 25  2  0  0  0  0
 25 26  1  0  0  0  0
 25 52  1  0  0  0  0
 26 27  2  0  0  0  0
 27 28  1  0  0  0  0
 27 53  1  0  0  0  0
 28 29  1  0  0  0  0
 29 54  1  0  0  0  0
 29 55  1  0  0  0  0
M  END
$$$$
