CHEMBL272823
 OpenBabel04072215363D

 55 59  0  0  0  0  0  0  0  0999 V2000
    9.4038    1.3750   -5.1585 C   0  0  0  0  0  0  0  0  0  0  0  0
    9.6738    2.6631   -4.5939 O   0  0  0  0  0  0  0  0  0  0  0  0
    8.7080    3.1582   -3.7584 C   0  0  0  0  0  0  0  0  0  0  0  0
    7.9183    2.2940   -2.9853 C   0  0  0  0  0  0  0  0  0  0  0  0
    6.8301    2.7366   -2.2584 C   0  0  0  0  0  0  0  0  0  0  0  0
    6.0612    1.8125   -1.6788 N   0  0  0  0  0  0  0  0  0  0  0  0
    4.9528    2.2454   -1.0675 C   0  0  0  0  0  0  0  0  0  0  0  0
    4.5752    3.5203   -0.9660 N   0  0  0  0  0  0  0  0  0  0  0  0
    5.4166    4.4399   -1.4845 C   0  0  0  0  0  0  0  0  0  0  0  0
    5.0990    5.7933   -1.3124 O   0  0  0  0  0  0  0  0  0  0  0  0
    4.1734    6.0842   -0.3285 C   0  0  0  0  0  0  0  0  0  0  0  0
    4.2446    5.5133    0.9376 C   0  0  0  0  0  0  0  0  0  0  0  0
    3.1904    5.6649    1.8358 C   0  0  0  0  0  0  0  0  0  0  0  0
    2.0880    6.5048    1.5594 C   0  0  0  0  0  0  0  0  0  0  0  0
    0.9704    6.6974    2.4240 C   0  0  0  0  0  0  0  0  0  0  0  0
    0.7497    5.9867    3.7251 C   0  0  0  0  0  0  0  0  0  0  0  0
   -0.3933    5.6181    3.9797 O   0  0  0  0  0  0  0  0  0  0  0  0
    1.8381    5.8753    4.5728 N   0  0  0  0  0  0  0  0  0  0  0  0
    1.8534    5.2671    5.8493 C   0  0  0  0  0  0  0  0  0  0  0  0
    0.7830    4.5410    6.3821 C   0  0  0  0  0  0  0  0  0  0  0  0
    0.8316    4.0532    7.6909 C   0  0  0  0  0  0  0  0  0  0  0  0
    1.9619    4.2730    8.4723 C   0  0  0  0  0  0  0  0  0  0  0  0
    2.0003    3.7281   10.1034 Cl  0  0  0  0  0  0  0  0  0  0  0  0
    3.0583    4.9459    7.9387 C   0  0  0  0  0  0  0  0  0  0  0  0
    3.0069    5.4314    6.6273 C   0  0  0  0  0  0  0  0  0  0  0  0
   -0.0801    7.5515    2.0422 C   0  0  0  0  0  0  0  0  0  0  0  0
   -0.0466    8.2228    0.8262 C   0  0  0  0  0  0  0  0  0  0  0  0
    1.0286    8.0324   -0.0366 C   0  0  0  0  0  0  0  0  0  0  0  0
    2.0901    7.1774    0.3023 C   0  0  0  0  0  0  0  0  0  0  0  0
    3.1267    6.9541   -0.6276 C   0  0  0  0  0  0  0  0  0  0  0  0
    6.5717    4.1079   -2.1976 C   0  0  0  0  0  0  0  0  0  0  0  0
    7.4489    5.0055   -2.8464 C   0  0  0  0  0  0  0  0  0  0  0  0
    8.4992    4.5397   -3.6531 C   0  0  0  0  0  0  0  0  0  0  0  0
    9.1759    5.5626   -4.2577 O   0  0  0  0  0  0  0  0  0  0  0  0
   10.0647    5.2709   -5.3267 C   0  0  0  0  0  0  0  0  0  0  0  0
    9.7685    1.3692   -6.1897 H   0  0  0  0  0  0  0  0  0  0  0  0
    8.3357    1.1245   -5.2040 H   0  0  0  0  0  0  0  0  0  0  0  0
    9.9462    0.6094   -4.5944 H   0  0  0  0  0  0  0  0  0  0  0  0
    8.1178    1.2252   -2.9701 H   0  0  0  0  0  0  0  0  0  0  0  0
    4.3073    1.5026   -0.6275 H   0  0  0  0  0  0  0  0  0  0  0  0
    5.0732    4.8626    1.2017 H   0  0  0  0  0  0  0  0  0  0  0  0
    3.2438    5.0644    2.7375 H   0  0  0  0  0  0  0  0  0  0  0  0
    2.6773    6.3747    4.3074 H   0  0  0  0  0  0  0  0  0  0  0  0
   -0.1165    4.3434    5.8066 H   0  0  0  0  0  0  0  0  0  0  0  0
   -0.0229    3.5151    8.0960 H   0  0  0  0  0  0  0  0  0  0  0  0
    3.9466    5.1112    8.5421 H   0  0  0  0  0  0  0  0  0  0  0  0
    3.8713    5.9622    6.2374 H   0  0  0  0  0  0  0  0  0  0  0  0
   -0.9413    7.6831    2.6962 H   0  0  0  0  0  0  0  0  0  0  0  0
   -0.8700    8.8739    0.5436 H   0  0  0  0  0  0  0  0  0  0  0  0
    1.0190    8.5492   -0.9952 H   0  0  0  0  0  0  0  0  0  0  0  0
    3.0975    7.4216   -1.6108 H   0  0  0  0  0  0  0  0  0  0  0  0
    7.2828    6.0785   -2.7709 H   0  0  0  0  0  0  0  0  0  0  0  0
   10.2833    6.2182   -5.8300 H   0  0  0  0  0  0  0  0  0  0  0  0
    9.6139    4.6122   -6.0722 H   0  0  0  0  0  0  0  0  0  0  0  0
   11.0112    4.8748   -4.9445 H   0  0  0  0  0  0  0  0  0  0  0  0
  1  2  1  0  0  0  0
  1 36  1  0  0  0  0
  1 37  1  0  0  0  0
  1 38  1  0  0  0  0
  2  3  1  0  0  0  0
  3  4  1  0  0  0  0
  3 33  2  0  0  0  0
  4  5  2  0  0  0  0
  4 39  1  0  0  0  0
  5  6  1  0  0  0  0
  5 31  1  0  0  0  0
  6  7  2  0  0  0  0
  7  8  1  0  0  0  0
  7 40  1  0  0  0  0
  8  9  2  0  0  0  0
  9 10  1  0  0  0  0
  9 31  1  0  0  0  0
 10 11  1  0  0  0  0
 11 12  1  0  0  0  0
 11 30  2  0  0  0  0
 12 13  2  0  0  0  0
 12 41  1  0  0  0  0
 13 14  1  0  0  0  0
 13 42  1  0  0  0  0
 14 15  1  0  0  0  0
 14 29  2  0  0  0  0
 15 16  1  0  0  0  0
 15 26  2  0  0  0  0
 16 17  2  0  0  0  0
 16 18  1  0  0  0  0
 18 19  1  0  0  0  0
 18 43  1  0  0  0  0
 19 20  1  0  0  0  0
 19 25  2  0  0  0  0
 20 21  2  0  0  0  0
 20 44  1  0  0  0  0
 21 22  1  0  0  0  0
 21 45  1  0  0  0  0
 22 23  1  0  0  0  0
 22 24  2  0  0  0  0
 24 25  1  0  0  0  0
 24 46  1  0  0  0  0
 25 47  1  0  0  0  0
 26 27  1  0  0  0  0
 26 48  1  0  0  0  0
 27 28  2  0  0  0  0
 27 49  1  0  0  0  0
 28 29  1  0  0  0  0
 28 50  1  0  0  0  0
 29 30  1  0  0  0  0
 30 51  1  0  0  0  0
 31 32  2  0  0  0  0
 32 33  1  0  0  0  0
 32 52  1  0  0  0  0
 33 34  1  0  0  0  0
 34 35  1  0  0  0  0
 35 53  1  0  0  0  0
 35 54  1  0  0  0  0
 35 55  1  0  0  0  0
M  END
$$$$
