CHEMBL398458
 OpenBabel04072215373D

 40 43  0  0  0  0  0  0  0  0999 V2000
    1.6755   -0.2395   -1.1785 C   0  0  0  0  0  0  0  0  0  0  0  0
    2.5453    0.1822   -0.0166 C   0  0  0  0  0  0  0  0  0  0  0  0
    3.0166   -0.9330    0.7215 O   0  0  0  0  0  0  0  0  0  0  0  0
    4.3922   -0.9988    0.9168 C   0  0  0  0  0  0  0  0  0  0  0  0
    4.8797   -2.3140    0.7948 C   0  0  0  0  0  0  0  0  0  0  0  0
    6.2250   -2.6045    0.9548 C   0  0  0  0  0  0  0  0  0  0  0  0
    7.1239   -1.5900    1.2548 C   0  0  0  0  0  0  0  0  0  0  0  0
    6.6397   -0.2853    1.4332 C   0  0  0  0  0  0  0  0  0  0  0  0
    5.2737    0.0632    1.2987 C   0  0  0  0  0  0  0  0  0  0  0  0
    5.1899    1.4754    1.6177 C   0  0  0  0  0  0  0  0  0  0  0  0
    4.0182    2.3052    1.6701 C   0  0  0  0  0  0  0  0  0  0  0  0
    3.8564    3.6062    1.3778 C   0  0  0  0  0  0  0  0  0  0  0  0
    4.8755    4.6306    1.0341 C   0  0  0  0  0  0  0  0  0  0  0  0
    6.0438    4.5129    0.7206 O   0  0  0  0  0  0  0  0  0  0  0  0
    4.1722    5.8190    1.1246 N   0  0  0  0  0  0  0  0  0  0  0  0
    2.8154    5.6780    1.2304 N   0  0  0  0  0  0  0  0  0  0  0  0
    2.5768    4.3902    1.3370 C   0  0  0  0  0  0  0  0  0  0  0  0
    1.2343    3.8890    1.2451 C   0  0  0  0  0  0  0  0  0  0  0  0
    0.5771    2.7647    1.7063 C   0  0  0  0  0  0  0  0  0  0  0  0
   -0.7318    2.6084    1.2722 N   0  0  0  0  0  0  0  0  0  0  0  0
   -1.1191    3.6190    0.5162 N   0  0  0  0  0  0  0  0  0  0  0  0
    0.0688    4.7741    0.3236 S   0  0  0  0  0  0  0  0  0  0  0  0
    6.4601    1.9072    1.9254 C   0  0  0  0  0  0  0  0  0  0  0  0
    7.3263    0.8670    1.7526 N   0  0  0  0  0  0  0  0  0  0  0  0
    8.7616    0.9599    1.9017 C   0  0  0  0  0  0  0  0  0  0  0  0
    1.1085    0.6222   -1.5478 H   0  0  0  0  0  0  0  0  0  0  0  0
    0.9777   -1.0306   -0.8922 H   0  0  0  0  0  0  0  0  0  0  0  0
    2.2957   -0.6190   -1.9984 H   0  0  0  0  0  0  0  0  0  0  0  0
    1.9055    0.7362    0.6642 H   0  0  0  0  0  0  0  0  0  0  0  0
    3.3374    0.8304   -0.3998 H   0  0  0  0  0  0  0  0  0  0  0  0
    4.1865   -3.1196    0.5601 H   0  0  0  0  0  0  0  0  0  0  0  0
    6.5772   -3.6261    0.8396 H   0  0  0  0  0  0  0  0  0  0  0  0
    8.1824   -1.8168    1.3698 H   0  0  0  0  0  0  0  0  0  0  0  0
    3.1453    1.7571    1.9975 H   0  0  0  0  0  0  0  0  0  0  0  0
    4.5800    6.7234    0.9135 H   0  0  0  0  0  0  0  0  0  0  0  0
    0.9802    1.9946    2.3471 H   0  0  0  0  0  0  0  0  0  0  0  0
    6.8369    2.8725    2.2318 H   0  0  0  0  0  0  0  0  0  0  0  0
    9.0499    2.0053    2.0362 H   0  0  0  0  0  0  0  0  0  0  0  0
    9.2323    0.5663    0.9976 H   0  0  0  0  0  0  0  0  0  0  0  0
    9.0551    0.3752    2.7777 H   0  0  0  0  0  0  0  0  0  0  0  0
  1  2  1  0  0  0  0
  1 26  1  0  0  0  0
  1 27  1  0  0  0  0
  1 28  1  0  0  0  0
  2  3  1  0  0  0  0
  2 29  1  0  0  0  0
  2 30  1  0  0  0  0
  3  4  1  0  0  0  0
  4  5  1  0  0  0  0
  4  9  2  0  0  0  0
  5  6  2  0  0  0  0
  5 31  1  0  0  0  0
  6  7  1  0  0  0  0
  6 32  1  0  0  0  0
  7  8  2  0  0  0  0
  7 33  1  0  0  0  0
  8  9  1  0  0  0  0
  8 24  1  0  0  0  0
  9 10  1  0  0  0  0
 10 11  1  0  0  0  0
 10 23  2  0  0  0  0
 11 12  2  0  0  0  0
 11 34  1  0  0  0  0
 12 13  1  0  0  0  0
 12 17  1  0  0  0  0
 13 14  2  0  0  0  0
 13 15  1  0  0  0  0
 15 16  1  0  0  0  0
 15 35  1  0  0  0  0
 16 17  2  0  0  0  0
 17 18  1  0  0  0  0
 18 19  2  0  0  0  0
 18 22  1  0  0  0  0
 19 20  1  0  0  0  0
 19 36  1  0  0  0  0
 20 21  2  0  0  0  0
 21 22  1  0  0  0  0
 23 24  1  0  0  0  0
 23 37  1  0  0  0  0
 24 25  1  0  0  0  0
 25 38  1  0  0  0  0
 25 39  1  0  0  0  0
 25 40  1  0  0  0  0
M  END
$$$$
