CHEMBL3926946
 OpenBabel04072215373D

 55 58  0  0  0  0  0  0  0  0999 V2000
   -4.3262    2.6597    5.6488 C   0  0  0  0  0  0  0  0  0  0  0  0
   -3.4502    1.8404    4.7339 C   0  0  0  0  0  0  0  0  0  0  0  0
   -2.2614    1.1549    5.3512 C   0  0  0  0  0  0  0  0  0  0  0  0
   -2.3598   -0.0226    5.6741 O   0  0  0  0  0  0  0  0  0  0  0  0
   -1.1573    1.9586    5.5613 N   0  0  0  0  0  0  0  0  0  0  0  0
   -0.0346    1.4477    6.2274 C   0  0  0  0  0  0  0  0  0  0  0  0
    0.4924    0.2128    5.8712 C   0  0  0  0  0  0  0  0  0  0  0  0
    1.4246   -0.3903    6.7121 C   0  0  0  0  0  0  0  0  0  0  0  0
    1.9257   -1.6647    6.5151 O   0  0  0  0  0  0  0  0  0  0  0  0
    1.0950   -2.6301    5.9863 C   0  0  0  0  0  0  0  0  0  0  0  0
   -0.2796   -2.6659    6.2307 C   0  0  0  0  0  0  0  0  0  0  0  0
   -1.0940   -3.5741    5.5538 C   0  0  0  0  0  0  0  0  0  0  0  0
   -0.5521   -4.5072    4.6659 C   0  0  0  0  0  0  0  0  0  0  0  0
   -1.3766   -5.3863    3.9232 N   0  0  0  0  0  0  0  0  0  0  0  0
   -2.6865   -5.0816    3.5690 C   0  0  0  0  0  0  0  0  0  0  0  0
   -3.2157   -3.9851    3.7030 O   0  0  0  0  0  0  0  0  0  0  0  0
   -3.3557   -6.1926    3.0701 N   0  0  0  0  0  0  0  0  0  0  0  0
   -4.7145   -6.1091    2.6760 C   0  0  0  0  0  0  0  0  0  0  0  0
   -5.5915   -7.0999    3.1020 C   0  0  0  0  0  0  0  0  0  0  0  0
   -6.9505   -6.9982    2.7978 C   0  0  0  0  0  0  0  0  0  0  0  0
   -7.4372   -5.9364    2.0195 C   0  0  0  0  0  0  0  0  0  0  0  0
   -9.1368   -5.9283    1.7250 Cl  0  0  0  0  0  0  0  0  0  0  0  0
   -6.5620   -4.9572    1.5386 C   0  0  0  0  0  0  0  0  0  0  0  0
   -6.9757   -3.8022    0.6638 C   0  0  0  0  0  0  0  0  0  0  0  0
   -8.2752   -3.7629    0.2791 F   0  0  0  0  0  0  0  0  0  0  0  0
   -6.7383   -2.5948    1.2557 F   0  0  0  0  0  0  0  0  0  0  0  0
   -6.2635   -3.7772   -0.5040 F   0  0  0  0  0  0  0  0  0  0  0  0
   -5.1968   -5.0530    1.8926 C   0  0  0  0  0  0  0  0  0  0  0  0
    0.8377   -4.5741    4.5319 C   0  0  0  0  0  0  0  0  0  0  0  0
    1.6446   -3.6257    5.1757 C   0  0  0  0  0  0  0  0  0  0  0  0
    2.9711   -3.6749    4.9795 F   0  0  0  0  0  0  0  0  0  0  0  0
    1.8849    0.3134    7.8161 C   0  0  0  0  0  0  0  0  0  0  0  0
    1.3741    1.5850    8.0348 C   0  0  0  0  0  0  0  0  0  0  0  0
    0.4391    2.1779    7.2540 N   0  0  0  0  0  0  0  0  0  0  0  0
   -3.3964    2.2215    3.2634 C   0  0  0  0  0  0  0  0  0  0  0  0
   -4.1863    1.0190    3.6772 C   0  0  0  0  0  0  0  0  0  0  0  0
   -3.7331    3.4023    6.1927 H   0  0  0  0  0  0  0  0  0  0  0  0
   -4.8223    2.0122    6.3791 H   0  0  0  0  0  0  0  0  0  0  0  0
   -5.1048    3.1980    5.0958 H   0  0  0  0  0  0  0  0  0  0  0  0
   -1.3285    2.9420    5.7101 H   0  0  0  0  0  0  0  0  0  0  0  0
    0.1301   -0.2903    4.9811 H   0  0  0  0  0  0  0  0  0  0  0  0
   -0.7580   -1.9530    6.8978 H   0  0  0  0  0  0  0  0  0  0  0  0
   -2.1647   -3.5086    5.7296 H   0  0  0  0  0  0  0  0  0  0  0  0
   -0.9237   -6.0873    3.3570 H   0  0  0  0  0  0  0  0  0  0  0  0
   -3.0615   -7.0623    3.4934 H   0  0  0  0  0  0  0  0  0  0  0  0
   -5.2520   -7.9213    3.7266 H   0  0  0  0  0  0  0  0  0  0  0  0
   -7.6361   -7.7472    3.1870 H   0  0  0  0  0  0  0  0  0  0  0  0
   -4.5087   -4.2818    1.5427 H   0  0  0  0  0  0  0  0  0  0  0  0
    1.3141   -5.3141    3.8957 H   0  0  0  0  0  0  0  0  0  0  0  0
    2.6077   -0.1195    8.4979 H   0  0  0  0  0  0  0  0  0  0  0  0
    1.6918    2.1705    8.8938 H   0  0  0  0  0  0  0  0  0  0  0  0
   -2.4791    2.0473    2.7112 H   0  0  0  0  0  0  0  0  0  0  0  0
   -3.9574    3.0824    2.9174 H   0  0  0  0  0  0  0  0  0  0  0  0
   -3.7949    0.0342    3.4346 H   0  0  0  0  0  0  0  0  0  0  0  0
   -5.2689    1.0635    3.6525 H   0  0  0  0  0  0  0  0  0  0  0  0
  1  2  1  0  0  0  0
  1 37  1  0  0  0  0
  1 38  1  0  0  0  0
  1 39  1  0  0  0  0
  2  3  1  0  0  0  0
  2 35  1  0  0  0  0
  2 36  1  0  0  0  0
  3  4  2  0  0  0  0
  3  5  1  0  0  0  0
  5  6  1  0  0  0  0
  5 40  1  0  0  0  0
  6  7  1  0  0  0  0
  6 34  2  0  0  0  0
  7  8  2  0  0  0  0
  7 41  1  0  0  0  0
  8  9  1  0  0  0  0
  8 32  1  0  0  0  0
  9 10  1  0  0  0  0
 10 11  1  0  0  0  0
 10 30  2  0  0  0  0
 11 12  2  0  0  0  0
 11 42  1  0  0  0  0
 12 13  1  0  0  0  0
 12 43  1  0  0  0  0
 13 14  1  0  0  0  0
 13 29  2  0  0  0  0
 14 15  1  0  0  0  0
 14 44  1  0  0  0  0
 15 16  2  0  0  0  0
 15 17  1  0  0  0  0
 17 18  1  0  0  0  0
 17 45  1  0  0  0  0
 18 19  1  0  0  0  0
 18 28  2  0  0  0  0
 19 20  2  0  0  0  0
 19 46  1  0  0  0  0
 20 21  1  0  0  0  0
 20 47  1  0  0  0  0
 21 22  1  0  0  0  0
 21 23  2  0  0  0  0
 23 24  1  0  0  0  0
 23 28  1  0  0  0  0
 24 25  1  0  0  0  0
 24 26  1  0  0  0  0
 24 27  1  0  0  0  0
 28 48  1  0  0  0  0
 29 30  1  0  0  0  0
 29 49  1  0  0  0  0
 30 31  1  0  0  0  0
 32 33  2  0  0  0  0
 32 50  1  0  0  0  0
 33 34  1  0  0  0  0
 33 51  1  0  0  0  0
 35 36  1  0  0  0  0
 35 52  1  0  0  0  0
 35 53  1  0  0  0  0
 36 54  1  0  0  0  0
 36 55  1  0  0  0  0
M  END
$$$$
