CHEMBL4799534
 OpenBabel04072215383D

 53 56  0  0  0  0  0  0  0  0999 V2000
    6.0157   11.1831    0.5559 C   0  0  0  0  0  0  0  0  0  0  0  0
    6.8399   10.0289    0.7428 O   0  0  0  0  0  0  0  0  0  0  0  0
    6.1984    8.9270    1.2479 C   0  0  0  0  0  0  0  0  0  0  0  0
    4.8346    8.6989    0.9899 C   0  0  0  0  0  0  0  0  0  0  0  0
    4.1283    7.6519    1.5574 C   0  0  0  0  0  0  0  0  0  0  0  0
    2.8117    7.5770    1.3276 N   0  0  0  0  0  0  0  0  0  0  0  0
    2.1557    6.6026    1.9562 C   0  0  0  0  0  0  0  0  0  0  0  0
    2.6908    5.6989    2.7800 N   0  0  0  0  0  0  0  0  0  0  0  0
    4.0200    5.7748    2.9925 C   0  0  0  0  0  0  0  0  0  0  0  0
    4.6163    4.8573    3.8972 N   0  0  0  0  0  0  0  0  0  0  0  0
    3.9105    4.0988    4.8544 C   0  0  0  0  0  0  0  0  0  0  0  0
    4.3066    2.7971    5.1516 C   0  0  0  0  0  0  0  0  0  0  0  0
    3.5556    2.0096    6.0313 C   0  0  0  0  0  0  0  0  0  0  0  0
    2.4085    2.5101    6.6501 C   0  0  0  0  0  0  0  0  0  0  0  0
    1.5354    1.7309    7.4523 N   0  0  0  0  0  0  0  0  0  0  0  0
    1.6640    0.3748    7.6933 C   0  0  0  0  0  0  0  0  0  0  0  0
    2.5917   -0.3372    7.3304 O   0  0  0  0  0  0  0  0  0  0  0  0
    0.5809   -0.2954    8.4651 C   0  0  0  0  0  0  0  0  0  0  0  0
   -0.7493    0.1388    8.4951 C   0  0  0  0  0  0  0  0  0  0  0  0
   -1.7160   -0.6148    9.1825 C   0  0  0  0  0  0  0  0  0  0  0  0
   -1.3679   -1.8047    9.8433 C   0  0  0  0  0  0  0  0  0  0  0  0
   -2.3910   -2.6553   10.5571 C   0  0  0  0  0  0  0  0  0  0  0  0
   -3.6509   -2.1415   10.5168 F   0  0  0  0  0  0  0  0  0  0  0  0
   -2.4806   -3.9092   10.0328 F   0  0  0  0  0  0  0  0  0  0  0  0
   -2.0963   -2.8229   11.8763 F   0  0  0  0  0  0  0  0  0  0  0  0
   -0.0322   -2.2258    9.8177 C   0  0  0  0  0  0  0  0  0  0  0  0
    0.9273   -1.4762    9.1366 C   0  0  0  0  0  0  0  0  0  0  0  0
    2.0751    3.8509    6.4444 C   0  0  0  0  0  0  0  0  0  0  0  0
    2.8279    4.6356    5.5637 C   0  0  0  0  0  0  0  0  0  0  0  0
    4.8124    6.7517    2.3739 C   0  0  0  0  0  0  0  0  0  0  0  0
    6.2052    6.9116    2.5606 C   0  0  0  0  0  0  0  0  0  0  0  0
    6.9033    7.9996    2.0218 C   0  0  0  0  0  0  0  0  0  0  0  0
    8.2162    7.9817    2.3936 O   0  0  0  0  0  0  0  0  0  0  0  0
    9.0578    9.0891    2.1244 C   0  0  0  0  0  0  0  0  0  0  0  0
    6.6547   12.0695    0.5962 H   0  0  0  0  0  0  0  0  0  0  0  0
    5.2594   11.2935    1.3435 H   0  0  0  0  0  0  0  0  0  0  0  0
    5.5417   11.1493   -0.4306 H   0  0  0  0  0  0  0  0  0  0  0  0
    4.2718    9.3697    0.3440 H   0  0  0  0  0  0  0  0  0  0  0  0
    1.0859    6.5430    1.7961 H   0  0  0  0  0  0  0  0  0  0  0  0
    5.3238    4.3143    3.4113 H   0  0  0  0  0  0  0  0  0  0  0  0
    5.1779    2.3553    4.6758 H   0  0  0  0  0  0  0  0  0  0  0  0
    3.8962    0.9929    6.1890 H   0  0  0  0  0  0  0  0  0  0  0  0
    0.7490    2.2193    7.8519 H   0  0  0  0  0  0  0  0  0  0  0  0
   -1.0713    1.0217    7.9518 H   0  0  0  0  0  0  0  0  0  0  0  0
   -2.7533   -0.2802    9.1787 H   0  0  0  0  0  0  0  0  0  0  0  0
    0.2668   -3.1500   10.3090 H   0  0  0  0  0  0  0  0  0  0  0  0
    1.9554   -1.8383    9.1074 H   0  0  0  0  0  0  0  0  0  0  0  0
    1.2168    4.3046    6.9302 H   0  0  0  0  0  0  0  0  0  0  0  0
    2.5410    5.6724    5.4071 H   0  0  0  0  0  0  0  0  0  0  0  0
    6.7559    6.2051    3.1807 H   0  0  0  0  0  0  0  0  0  0  0  0
    9.8920    9.0335    2.8327 H   0  0  0  0  0  0  0  0  0  0  0  0
    8.5767   10.0542    2.2960 H   0  0  0  0  0  0  0  0  0  0  0  0
    9.4734    9.0107    1.1159 H   0  0  0  0  0  0  0  0  0  0  0  0
  1  2  1  0  0  0  0
  1 35  1  0  0  0  0
  1 36  1  0  0  0  0
  1 37  1  0  0  0  0
  2  3  1  0  0  0  0
  3  4  1  0  0  0  0
  3 32  2  0  0  0  0
  4  5  2  0  0  0  0
  4 38  1  0  0  0  0
  5  6  1  0  0  0  0
  5 30  1  0  0  0  0
  6  7  2  0  0  0  0
  7  8  1  0  0  0  0
  7 39  1  0  0  0  0
  8  9  2  0  0  0  0
  9 10  1  0  0  0  0
  9 30  1  0  0  0  0
 10 11  1  0  0  0  0
 10 40  1  0  0  0  0
 11 12  1  0  0  0  0
 11 29  2  0  0  0  0
 12 13  2  0  0  0  0
 12 41  1  0  0  0  0
 13 14  1  0  0  0  0
 13 42  1  0  0  0  0
 14 15  1  0  0  0  0
 14 28  2  0  0  0  0
 15 16  1  0  0  0  0
 15 43  1  0  0  0  0
 16 17  2  0  0  0  0
 16 18  1  0  0  0  0
 18 19  1  0  0  0  0
 18 27  2  0  0  0  0
 19 20  2  0  0  0  0
 19 44  1  0  0  0  0
 20 21  1  0  0  0  0
 20 45  1  0  0  0  0
 21 22  1  0  0  0  0
 21 26  2  0  0  0  0
 22 23  1  0  0  0  0
 22 24  1  0  0  0  0
 22 25  1  0  0  0  0
 26 27  1  0  0  0  0
 26 46  1  0  0  0  0
 27 47  1  0  0  0  0
 28 29  1  0  0  0  0
 28 48  1  0  0  0  0
 29 49  1  0  0  0  0
 30 31  2  0  0  0  0
 31 32  1  0  0  0  0
 31 50  1  0  0  0  0
 32 33  1  0  0  0  0
 33 34  1  0  0  0  0
 34 51  1  0  0  0  0
 34 52  1  0  0  0  0
 34 53  1  0  0  0  0
M  END
$$$$
