CHEMBL223943
 OpenBabel04072215363D

 52 56  0  0  0  0  0  0  0  0999 V2000
    6.0630   -2.0705    5.9480 C   0  0  0  0  0  0  0  0  0  0  0  0
    6.1695   -1.5276    4.6015 C   0  0  0  0  0  0  0  0  0  0  0  0
    6.2327   -0.9977    3.5146 C   0  0  0  0  0  0  0  0  0  0  0  0
    6.3686   -0.2106    2.3304 C   0  0  0  0  0  0  0  0  0  0  0  0
    7.5707    0.2730    1.8583 C   0  0  0  0  0  0  0  0  0  0  0  0
    7.4665    1.1768    0.7208 C   0  0  0  0  0  0  0  0  0  0  0  0
    8.7550    1.8333    0.1647 C   0  0  0  0  0  0  0  0  0  0  0  0
    9.7963    1.6570    1.0065 N   0  0  0  0  0  0  0  0  0  0  0  0
   10.3185    0.4964    0.4899 N   0  0  0  0  0  0  0  0  0  0  0  0
    9.9113    0.2959   -0.8232 C   0  0  0  0  0  0  0  0  0  0  0  0
    9.4647    1.6067   -1.0897 C   0  0  0  0  0  0  0  0  0  0  0  0
    9.2541    1.6930   -2.5611 C   0  0  0  0  0  0  0  0  0  0  0  0
    8.4928    0.3949   -2.6340 C   0  0  0  0  0  0  0  0  0  0  0  0
    7.2002    0.4040   -3.1338 C   0  0  0  0  0  0  0  0  0  0  0  0
    6.2996   -0.4642   -2.5288 C   0  0  0  0  0  0  0  0  0  0  0  0
    4.8812    0.0568   -2.3362 C   0  0  0  0  0  0  0  0  0  0  0  0
    4.0316    0.1636   -3.5084 N   0  0  0  0  0  0  0  0  0  0  0  0
    3.7146   -1.1690   -4.0267 C   0  0  0  0  0  0  0  0  0  0  0  0
    2.7979   -1.0335   -5.2519 C   0  0  0  0  0  0  0  0  0  0  0  0
    1.5050   -0.3725   -4.9706 N   0  0  0  0  0  0  0  0  0  0  0  0
    0.6452   -1.2226   -4.1479 C   0  0  0  0  0  0  0  0  0  0  0  0
    1.7624    0.9260   -4.3097 C   0  0  0  0  0  0  0  0  0  0  0  0
    2.7732    0.8649   -3.1406 C   0  0  0  0  0  0  0  0  0  0  0  0
    6.8043   -1.5541   -1.7523 C   0  0  0  0  0  0  0  0  0  0  0  0
    8.1367   -1.5855   -1.2984 C   0  0  0  0  0  0  0  0  0  0  0  0
    8.9674   -0.5314   -1.6457 C   0  0  0  0  0  0  0  0  0  0  0  0
    6.1355    1.3330    0.4047 C   0  0  0  0  0  0  0  0  0  0  0  0
    5.0928    0.2953    1.3309 S   0  0  0  0  0  0  0  0  0  0  0  0
    5.3614   -2.9085    5.9877 H   0  0  0  0  0  0  0  0  0  0  0  0
    5.7152   -1.3013    6.6501 H   0  0  0  0  0  0  0  0  0  0  0  0
    7.0410   -2.4205    6.3061 H   0  0  0  0  0  0  0  0  0  0  0  0
    8.4980    0.0404    2.3590 H   0  0  0  0  0  0  0  0  0  0  0  0
   11.2286    0.2712    0.8658 H   0  0  0  0  0  0  0  0  0  0  0  0
   10.2156    1.5491   -3.0852 H   0  0  0  0  0  0  0  0  0  0  0  0
    8.7619    2.5832   -2.9407 H   0  0  0  0  0  0  0  0  0  0  0  0
    6.8420    1.2842   -3.6705 H   0  0  0  0  0  0  0  0  0  0  0  0
    5.0070    1.0897   -1.9947 H   0  0  0  0  0  0  0  0  0  0  0  0
    4.3895   -0.4793   -1.5194 H   0  0  0  0  0  0  0  0  0  0  0  0
    3.2444   -1.7896   -3.2517 H   0  0  0  0  0  0  0  0  0  0  0  0
    4.6316   -1.6824   -4.3347 H   0  0  0  0  0  0  0  0  0  0  0  0
    2.6338   -2.0210   -5.6961 H   0  0  0  0  0  0  0  0  0  0  0  0
    3.3253   -0.4466   -6.0170 H   0  0  0  0  0  0  0  0  0  0  0  0
    0.5461   -2.2167   -4.5965 H   0  0  0  0  0  0  0  0  0  0  0  0
   -0.3616   -0.7963   -4.0960 H   0  0  0  0  0  0  0  0  0  0  0  0
    1.0085   -1.3515   -3.1231 H   0  0  0  0  0  0  0  0  0  0  0  0
    0.8198    1.3681   -3.9616 H   0  0  0  0  0  0  0  0  0  0  0  0
    2.1525    1.6215   -5.0646 H   0  0  0  0  0  0  0  0  0  0  0  0
    2.2972    0.3745   -2.2798 H   0  0  0  0  0  0  0  0  0  0  0  0
    2.9957    1.8942   -2.8288 H   0  0  0  0  0  0  0  0  0  0  0  0
    6.0862   -2.2848   -1.3848 H   0  0  0  0  0  0  0  0  0  0  0  0
    8.4205   -2.3308   -0.5552 H   0  0  0  0  0  0  0  0  0  0  0  0
    5.6726    1.9799   -0.3187 H   0  0  0  0  0  0  0  0  0  0  0  0
  1  2  1  0  0  0  0
  1 29  1  0  0  0  0
  1 30  1  0  0  0  0
  1 31  1  0  0  0  0
  2  3  3  0  0  0  0
  3  4  1  0  0  0  0
  4  5  2  0  0  0  0
  4 28  1  0  0  0  0
  5  6  1  0  0  0  0
  5 32  1  0  0  0  0
  6  7  1  0  0  0  0
  6 27  2  0  0  0  0
  7  8  2  0  0  0  0
  7 11  1  0  0  0  0
  8  9  1  0  0  0  0
  9 10  1  0  0  0  0
  9 33  1  0  0  0  0
 10 11  2  0  0  0  0
 10 26  1  0  0  0  0
 11 12  1  0  0  0  0
 12 13  1  0  0  0  0
 12 34  1  0  0  0  0
 12 35  1  0  0  0  0
 13 14  1  0  0  0  0
 13 26  2  0  0  0  0
 14 15  2  0  0  0  0
 14 36  1  0  0  0  0
 15 16  1  0  0  0  0
 15 24  1  0  0  0  0
 16 17  1  0  0  0  0
 16 37  1  0  0  0  0
 16 38  1  0  0  0  0
 17 18  1  0  0  0  0
 17 23  1  0  0  0  0
 18 19  1  0  0  0  0
 18 39  1  0  0  0  0
 18 40  1  0  0  0  0
 19 20  1  0  0  0  0
 19 41  1  0  0  0  0
 19 42  1  0  0  0  0
 20 21  1  0  0  0  0
 20 22  1  0  0  0  0
 21 43  1  0  0  0  0
 21 44  1  0  0  0  0
 21 45  1  0  0  0  0
 22 23  1  0  0  0  0
 22 46  1  0  0  0  0
 22 47  1  0  0  0  0
 23 48  1  0  0  0  0
 23 49  1  0  0  0  0
 24 25  2  0  0  0  0
 24 50  1  0  0  0  0
 25 26  1  0  0  0  0
 25 51  1  0  0  0  0
 27 28  1  0  0  0  0
 27 52  1  0  0  0  0
M  END
$$$$
