CHEMBL4165354
 OpenBabel04072215383D

 41 45  0  0  0  0  0  0  0  0999 V2000
    0.4083    0.6972    2.9866 C   0  0  0  0  0  0  0  0  0  0  0  0
    1.5329    0.5552    2.1260 O   0  0  0  0  0  0  0  0  0  0  0  0
    2.4766   -0.3661    2.4973 C   0  0  0  0  0  0  0  0  0  0  0  0
    2.4645   -1.1169    3.6686 C   0  0  0  0  0  0  0  0  0  0  0  0
    3.4750   -2.0474    3.9175 C   0  0  0  0  0  0  0  0  0  0  0  0
    4.5119   -2.2475    2.9969 C   0  0  0  0  0  0  0  0  0  0  0  0
    5.5569   -3.3086    3.2624 C   0  0  0  0  0  0  0  0  0  0  0  0
    4.9560   -4.6674    3.3517 C   0  0  0  0  0  0  0  0  0  0  0  0
    4.6300   -5.3790    4.4247 N   0  0  0  0  0  0  0  0  0  0  0  0
    4.0115   -6.5634    4.0015 N   0  0  0  0  0  0  0  0  0  0  0  0
    3.9984   -6.5059    2.7001 C   0  0  0  0  0  0  0  0  0  0  0  0
    3.4774   -7.4583    1.3734 S   0  0  0  0  0  0  0  0  0  0  0  0
    4.1762   -6.1948    0.3589 C   0  0  0  0  0  0  0  0  0  0  0  0
    4.2488   -6.3131   -1.0618 C   0  0  0  0  0  0  0  0  0  0  0  0
    3.8036   -7.2288   -2.0003 C   0  0  0  0  0  0  0  0  0  0  0  0
    4.3958   -6.8835   -3.2589 C   0  0  0  0  0  0  0  0  0  0  0  0
    4.4110   -7.4603   -4.5439 C   0  0  0  0  0  0  0  0  0  0  0  0
    5.2144   -6.8836   -5.5412 C   0  0  0  0  0  0  0  0  0  0  0  0
    5.9719   -5.7418   -5.2865 C   0  0  0  0  0  0  0  0  0  0  0  0
    5.9336   -5.1269   -4.0377 C   0  0  0  0  0  0  0  0  0  0  0  0
    5.1410   -5.7263   -3.0566 C   0  0  0  0  0  0  0  0  0  0  0  0
    4.9383   -5.3495   -1.7621 N   0  0  0  0  0  0  0  0  0  0  0  0
    4.7163   -5.1539    0.9316 N   0  0  0  0  0  0  0  0  0  0  0  0
    4.5863   -5.3762    2.2508 N   0  0  0  0  0  0  0  0  0  0  0  0
    4.5343   -1.4710    1.8322 C   0  0  0  0  0  0  0  0  0  0  0  0
    3.5211   -0.5367    1.5878 C   0  0  0  0  0  0  0  0  0  0  0  0
   -0.2926    1.3910    2.5129 H   0  0  0  0  0  0  0  0  0  0  0  0
    0.7069    1.1263    3.9488 H   0  0  0  0  0  0  0  0  0  0  0  0
   -0.1148   -0.2556    3.1246 H   0  0  0  0  0  0  0  0  0  0  0  0
    1.6769   -1.0142    4.4096 H   0  0  0  0  0  0  0  0  0  0  0  0
    3.4324   -2.6394    4.8317 H   0  0  0  0  0  0  0  0  0  0  0  0
    6.0834   -3.0656    4.1929 H   0  0  0  0  0  0  0  0  0  0  0  0
    6.3189   -3.2939    2.4718 H   0  0  0  0  0  0  0  0  0  0  0  0
    3.1935   -8.1030   -1.8076 H   0  0  0  0  0  0  0  0  0  0  0  0
    3.8390   -8.3577   -4.7586 H   0  0  0  0  0  0  0  0  0  0  0  0
    5.2601   -7.3433   -6.5268 H   0  0  0  0  0  0  0  0  0  0  0  0
    6.6077   -5.3247   -6.0634 H   0  0  0  0  0  0  0  0  0  0  0  0
    6.5171   -4.2366   -3.8278 H   0  0  0  0  0  0  0  0  0  0  0  0
    5.3488   -4.5369   -1.3214 H   0  0  0  0  0  0  0  0  0  0  0  0
    5.3287   -1.5906    1.0984 H   0  0  0  0  0  0  0  0  0  0  0  0
    3.5434    0.0561    0.6760 H   0  0  0  0  0  0  0  0  0  0  0  0
  1  2  1  0  0  0  0
  1 27  1  0  0  0  0
  1 28  1  0  0  0  0
  1 29  1  0  0  0  0
  2  3  1  0  0  0  0
  3  4  1  0  0  0  0
  3 26  2  0  0  0  0
  4  5  2  0  0  0  0
  4 30  1  0  0  0  0
  5  6  1  0  0  0  0
  5 31  1  0  0  0  0
  6  7  1  0  0  0  0
  6 25  2  0  0  0  0
  7  8  1  0  0  0  0
  7 32  1  0  0  0  0
  7 33  1  0  0  0  0
  8  9  2  0  0  0  0
  8 24  1  0  0  0  0
  9 10  1  0  0  0  0
 10 11  2  0  0  0  0
 11 12  1  0  0  0  0
 11 24  1  0  0  0  0
 12 13  1  0  0  0  0
 13 14  1  0  0  0  0
 13 23  2  0  0  0  0
 14 15  2  0  0  0  0
 14 22  1  0  0  0  0
 15 16  1  0  0  0  0
 15 34  1  0  0  0  0
 16 17  1  0  0  0  0
 16 21  2  0  0  0  0
 17 18  2  0  0  0  0
 17 35  1  0  0  0  0
 18 19  1  0  0  0  0
 18 36  1  0  0  0  0
 19 20  2  0  0  0  0
 19 37  1  0  0  0  0
 20 21  1  0  0  0  0
 20 38  1  0  0  0  0
 21 22  1  0  0  0  0
 22 39  1  0  0  0  0
 23 24  1  0  0  0  0
 25 26  1  0  0  0  0
 25 40  1  0  0  0  0
 26 41  1  0  0  0  0
M  END
$$$$
