CHEMBL179465
 OpenBabel04072215363D

 43 45  0  0  0  0  0  0  0  0999 V2000
    1.5166   -0.4998   -3.6133 C   0  0  0  0  0  0  0  0  0  0  0  0
    2.9769   -0.4436   -3.2101 C   0  0  0  0  0  0  0  0  0  0  0  0
    3.2173    0.5245   -1.7241 S   0  0  0  0  0  0  0  0  0  0  0  0
    2.7282    1.8643   -1.9813 O   0  0  0  0  0  0  0  0  0  0  0  0
    2.7451   -0.2384   -0.5846 O   0  0  0  0  0  0  0  0  0  0  0  0
    4.9854    0.6361   -1.5772 C   0  0  0  0  0  0  0  0  0  0  0  0
    5.6318    1.8673   -1.5974 C   0  0  0  0  0  0  0  0  0  0  0  0
    7.0299    1.9075   -1.5673 C   0  0  0  0  0  0  0  0  0  0  0  0
    7.7749    0.7186   -1.5452 C   0  0  0  0  0  0  0  0  0  0  0  0
    9.1495    0.6605   -1.5837 O   0  0  0  0  0  0  0  0  0  0  0  0
    9.8478    1.8550   -1.2479 C   0  0  0  0  0  0  0  0  0  0  0  0
    7.1177   -0.5332   -1.5350 C   0  0  0  0  0  0  0  0  0  0  0  0
    7.8844   -1.7231   -1.5695 N   0  0  0  0  0  0  0  0  0  0  0  0
    7.4188   -2.9562   -1.8391 C   0  0  0  0  0  0  0  0  0  0  0  0
    6.1810   -3.4028   -1.8701 N   0  0  0  0  0  0  0  0  0  0  0  0
    6.2900   -4.7017   -2.2554 C   0  0  0  0  0  0  0  0  0  0  0  0
    7.6089   -5.0221   -2.4680 C   0  0  0  0  0  0  0  0  0  0  0  0
    8.3000   -6.2201   -2.9150 C   0  0  0  0  0  0  0  0  0  0  0  0
    7.5551   -7.3671   -3.2490 C   0  0  0  0  0  0  0  0  0  0  0  0
    8.1832   -8.5360   -3.6850 C   0  0  0  0  0  0  0  0  0  0  0  0
    9.5695   -8.5709   -3.7943 C   0  0  0  0  0  0  0  0  0  0  0  0
   10.3093   -7.4388   -3.4697 C   0  0  0  0  0  0  0  0  0  0  0  0
   11.6415   -7.4744   -3.5803 F   0  0  0  0  0  0  0  0  0  0  0  0
    9.6920   -6.2694   -3.0344 C   0  0  0  0  0  0  0  0  0  0  0  0
    8.3518   -3.9005   -2.1833 O   0  0  0  0  0  0  0  0  0  0  0  0
    5.7169   -0.5458   -1.5007 C   0  0  0  0  0  0  0  0  0  0  0  0
    1.3978   -1.0833   -4.5318 H   0  0  0  0  0  0  0  0  0  0  0  0
    1.1182    0.5032   -3.7953 H   0  0  0  0  0  0  0  0  0  0  0  0
    0.9090   -0.9656   -2.8311 H   0  0  0  0  0  0  0  0  0  0  0  0
    3.5682    0.0191   -4.0061 H   0  0  0  0  0  0  0  0  0  0  0  0
    3.3519   -1.4542   -3.0245 H   0  0  0  0  0  0  0  0  0  0  0  0
    5.0635    2.7940   -1.6444 H   0  0  0  0  0  0  0  0  0  0  0  0
    7.5057    2.8817   -1.5948 H   0  0  0  0  0  0  0  0  0  0  0  0
   10.9188    1.6301   -1.2611 H   0  0  0  0  0  0  0  0  0  0  0  0
    9.5873    2.1898   -0.2382 H   0  0  0  0  0  0  0  0  0  0  0  0
    9.6721    2.6448   -1.9854 H   0  0  0  0  0  0  0  0  0  0  0  0
    8.8794   -1.5489   -1.6608 H   0  0  0  0  0  0  0  0  0  0  0  0
    5.4172   -5.3273   -2.3710 H   0  0  0  0  0  0  0  0  0  0  0  0
    6.4699   -7.3676   -3.1755 H   0  0  0  0  0  0  0  0  0  0  0  0
    7.5902   -9.4108   -3.9368 H   0  0  0  0  0  0  0  0  0  0  0  0
   10.0767   -9.4689   -4.1293 H   0  0  0  0  0  0  0  0  0  0  0  0
   10.3110   -5.4102   -2.7942 H   0  0  0  0  0  0  0  0  0  0  0  0
    5.1681   -1.4784   -1.4255 H   0  0  0  0  0  0  0  0  0  0  0  0
  1  2  1  0  0  0  0
  1 27  1  0  0  0  0
  1 28  1  0  0  0  0
  1 29  1  0  0  0  0
  2  3  1  0  0  0  0
  2 30  1  0  0  0  0
  2 31  1  0  0  0  0
  3  4  2  0  0  0  0
  3  5  2  0  0  0  0
  3  6  1  0  0  0  0
  6  7  1  0  0  0  0
  6 26  2  0  0  0  0
  7  8  2  0  0  0  0
  7 32  1  0  0  0  0
  8  9  1  0  0  0  0
  8 33  1  0  0  0  0
  9 10  1  0  0  0  0
  9 12  2  0  0  0  0
 10 11  1  0  0  0  0
 11 34  1  0  0  0  0
 11 35  1  0  0  0  0
 11 36  1  0  0  0  0
 12 13  1  0  0  0  0
 12 26  1  0  0  0  0
 13 14  1  0  0  0  0
 13 37  1  0  0  0  0
 14 15  2  0  0  0  0
 14 25  1  0  0  0  0
 15 16  1  0  0  0  0
 16 17  2  0  0  0  0
 16 38  1  0  0  0  0
 17 18  1  0  0  0  0
 17 25  1  0  0  0  0
 18 19  1  0  0  0  0
 18 24  2  0  0  0  0
 19 20  2  0  0  0  0
 19 39  1  0  0  0  0
 20 21  1  0  0  0  0
 20 40  1  0  0  0  0
 21 22  2  0  0  0  0
 21 41  1  0  0  0  0
 22 23  1  0  0  0  0
 22 24  1  0  0  0  0
 24 42  1  0  0  0  0
 26 43  1  0  0  0  0
M  END
$$$$
