CHEMBL2016909
 OpenBabel04072215363D

 52 56  0  0  0  0  0  0  0  0999 V2000
    1.0680   -0.0150    0.2406 O   0  0  0  0  0  0  0  0  0  0  0  0
    2.2623    0.0075   -0.0974 C   0  0  0  0  0  0  0  0  0  0  0  0
    2.8615   -1.1574   -0.9092 C   0  0  0  0  0  0  0  0  0  0  0  0
    3.4276   -2.1501    0.0193 N   0  0  0  0  0  0  0  0  0  0  0  0
    4.0121   -3.3210   -0.6533 C   0  0  0  0  0  0  0  0  0  0  0  0
    3.0134   -4.4433   -0.9635 C   0  0  0  0  0  0  0  0  0  0  0  0
    2.3360   -4.8687    0.2219 O   0  0  0  0  0  0  0  0  0  0  0  0
    1.6097   -3.7765    0.7969 C   0  0  0  0  0  0  0  0  0  0  0  0
    2.5260   -2.5820    1.1066 C   0  0  0  0  0  0  0  0  0  0  0  0
    3.1161    1.0326    0.3222 N   0  0  0  0  0  0  0  0  0  0  0  0
    2.4445    1.9973    1.2162 C   0  0  0  0  0  0  0  0  0  0  0  0
    3.2328    3.1968    1.7454 C   0  0  0  0  0  0  0  0  0  0  0  0
    4.3885    3.4828    0.8985 C   0  0  0  0  0  0  0  0  0  0  0  0
    5.2244    4.5380    1.0762 N   0  0  0  0  0  0  0  0  0  0  0  0
    6.0814    4.4817    0.0670 C   0  0  0  0  0  0  0  0  0  0  0  0
    7.1401    5.3640   -0.2510 C   0  0  0  0  0  0  0  0  0  0  0  0
    7.3895    6.3838    0.5976 C   0  0  0  0  0  0  0  0  0  0  0  0
    8.3610    7.4132    0.2569 C   0  0  0  0  0  0  0  0  0  0  0  0
    8.5976    8.4915    1.1115 C   0  0  0  0  0  0  0  0  0  0  0  0
    9.4479    9.5096    0.6989 C   0  0  0  0  0  0  0  0  0  0  0  0
    9.6487   10.5628    1.5011 F   0  0  0  0  0  0  0  0  0  0  0  0
   10.0780    9.4658   -0.5425 C   0  0  0  0  0  0  0  0  0  0  0  0
    9.8732    8.3720   -1.3854 C   0  0  0  0  0  0  0  0  0  0  0  0
    9.0121    7.3520   -0.9829 C   0  0  0  0  0  0  0  0  0  0  0  0
    8.7806    6.2548   -1.8250 N   0  0  0  0  0  0  0  0  0  0  0  0
    7.9240    5.2366   -1.5162 C   0  0  0  0  0  0  0  0  0  0  0  0
    7.7832    4.2675   -2.2748 O   0  0  0  0  0  0  0  0  0  0  0  0
    5.7917    3.4038   -0.7490 N   0  0  0  0  0  0  0  0  0  0  0  0
    4.7622    2.7189   -0.1795 C   0  0  0  0  0  0  0  0  0  0  0  0
    4.1299    1.4801   -0.6424 C   0  0  0  0  0  0  0  0  0  0  0  0
    3.6411   -0.7825   -1.5743 H   0  0  0  0  0  0  0  0  0  0  0  0
    2.0725   -1.5759   -1.5489 H   0  0  0  0  0  0  0  0  0  0  0  0
    4.7777   -3.7136    0.0269 H   0  0  0  0  0  0  0  0  0  0  0  0
    4.5365   -3.0314   -1.5693 H   0  0  0  0  0  0  0  0  0  0  0  0
    3.5499   -5.3079   -1.3679 H   0  0  0  0  0  0  0  0  0  0  0  0
    2.2765   -4.1298   -1.7114 H   0  0  0  0  0  0  0  0  0  0  0  0
    1.1642   -4.1422    1.7295 H   0  0  0  0  0  0  0  0  0  0  0  0
    0.7940   -3.4924    0.1237 H   0  0  0  0  0  0  0  0  0  0  0  0
    3.1812   -2.8730    1.9363 H   0  0  0  0  0  0  0  0  0  0  0  0
    1.9272   -1.7598    1.5086 H   0  0  0  0  0  0  0  0  0  0  0  0
    2.0763    1.4278    2.0828 H   0  0  0  0  0  0  0  0  0  0  0  0
    1.5533    2.3599    0.6904 H   0  0  0  0  0  0  0  0  0  0  0  0
    3.5584    3.0213    2.7753 H   0  0  0  0  0  0  0  0  0  0  0  0
    2.5651    4.0676    1.7659 H   0  0  0  0  0  0  0  0  0  0  0  0
    6.8142    6.5019    1.5111 H   0  0  0  0  0  0  0  0  0  0  0  0
    8.1164    8.5624    2.0824 H   0  0  0  0  0  0  0  0  0  0  0  0
   10.7190   10.2882   -0.8448 H   0  0  0  0  0  0  0  0  0  0  0  0
   10.3724    8.3390   -2.3498 H   0  0  0  0  0  0  0  0  0  0  0  0
    9.2594    6.1826   -2.7131 H   0  0  0  0  0  0  0  0  0  0  0  0
    6.2836    3.1899   -1.6173 H   0  0  0  0  0  0  0  0  0  0  0  0
    4.8765    0.6871   -0.7682 H   0  0  0  0  0  0  0  0  0  0  0  0
    3.6262    1.6348   -1.6023 H   0  0  0  0  0  0  0  0  0  0  0  0
  1  2  2  0  0  0  0
  2  3  1  0  0  0  0
  2 10  1  0  0  0  0
  3  4  1  0  0  0  0
  3 31  1  0  0  0  0
  3 32  1  0  0  0  0
  4  5  1  0  0  0  0
  4  9  1  0  0  0  0
  5  6  1  0  0  0  0
  5 33  1  0  0  0  0
  5 34  1  0  0  0  0
  6  7  1  0  0  0  0
  6 35  1  0  0  0  0
  6 36  1  0  0  0  0
  7  8  1  0  0  0  0
  8  9  1  0  0  0  0
  8 37  1  0  0  0  0
  8 38  1  0  0  0  0
  9 39  1  0  0  0  0
  9 40  1  0  0  0  0
 10 11  1  0  0  0  0
 10 30  1  0  0  0  0
 11 12  1  0  0  0  0
 11 41  1  0  0  0  0
 11 42  1  0  0  0  0
 12 13  1  0  0  0  0
 12 43  1  0  0  0  0
 12 44  1  0  0  0  0
 13 14  1  0  0  0  0
 13 29  2  0  0  0  0
 14 15  2  0  0  0  0
 15 16  1  0  0  0  0
 15 28  1  0  0  0  0
 16 17  2  0  0  0  0
 16 26  1  0  0  0  0
 17 18  1  0  0  0  0
 17 45  1  0  0  0  0
 18 19  1  0  0  0  0
 18 24  2  0  0  0  0
 19 20  2  0  0  0  0
 19 46  1  0  0  0  0
 20 21  1  0  0  0  0
 20 22  1  0  0  0  0
 22 23  2  0  0  0  0
 22 47  1  0  0  0  0
 23 24  1  0  0  0  0
 23 48  1  0  0  0  0
 24 25  1  0  0  0  0
 25 26  1  0  0  0  0
 25 49  1  0  0  0  0
 26 27  2  0  0  0  0
 28 29  1  0  0  0  0
 28 50  1  0  0  0  0
 29 30  1  0  0  0  0
 30 51  1  0  0  0  0
 30 52  1  0  0  0  0
M  END
$$$$
