CHEMBL1993904
 OpenBabel04072215363D

 44 48  0  0  0  0  0  0  0  0999 V2000
    8.1533   -5.2614    6.2091 N   0  0  0  0  0  0  0  0  0  0  0  0
    8.3451   -3.9248    5.9962 C   0  0  0  0  0  0  0  0  0  0  0  0
    9.4488   -3.4372    6.2250 O   0  0  0  0  0  0  0  0  0  0  0  0
    7.2151   -3.1688    5.4848 C   0  0  0  0  0  0  0  0  0  0  0  0
    7.1919   -1.8219    5.1898 C   0  0  0  0  0  0  0  0  0  0  0  0
    5.9631   -1.3616    4.5801 C   0  0  0  0  0  0  0  0  0  0  0  0
    5.5727   -0.0946    4.0462 C   0  0  0  0  0  0  0  0  0  0  0  0
    6.4975    1.0540    3.9554 C   0  0  0  0  0  0  0  0  0  0  0  0
    7.8484    0.8808    3.6352 C   0  0  0  0  0  0  0  0  0  0  0  0
    8.7455    1.9529    3.6103 C   0  0  0  0  0  0  0  0  0  0  0  0
    8.3297    3.2613    3.8616 C   0  0  0  0  0  0  0  0  0  0  0  0
    9.1978    4.3687    3.8111 N   0  0  0  0  0  0  0  0  0  0  0  0
   10.4987    4.3323    3.4628 C   0  0  0  0  0  0  0  0  0  0  0  0
   11.1520    3.4808    2.6968 N   0  0  0  0  0  0  0  0  0  0  0  0
   12.4513    3.8934    2.7683 C   0  0  0  0  0  0  0  0  0  0  0  0
   13.6110    3.3627    2.1906 C   0  0  0  0  0  0  0  0  0  0  0  0
   14.8296    3.9977    2.4663 C   0  0  0  0  0  0  0  0  0  0  0  0
   14.8851    5.1270    3.2939 C   0  0  0  0  0  0  0  0  0  0  0  0
   13.7293    5.6688    3.8738 C   0  0  0  0  0  0  0  0  0  0  0  0
   12.5430    5.0120    3.5744 C   0  0  0  0  0  0  0  0  0  0  0  0
   11.2831    5.3181    4.0058 O   0  0  0  0  0  0  0  0  0  0  0  0
    6.9639    3.4623    4.0897 C   0  0  0  0  0  0  0  0  0  0  0  0
    6.0680    2.3797    4.1535 C   0  0  0  0  0  0  0  0  0  0  0  0
    4.2532   -0.0258    3.5927 C   0  0  0  0  0  0  0  0  0  0  0  0
    3.3505   -1.0293    3.6142 N   0  0  0  0  0  0  0  0  0  0  0  0
    3.7232   -2.2353    4.0724 C   0  0  0  0  0  0  0  0  0  0  0  0
    2.7725   -3.2446    4.0495 N   0  0  0  0  0  0  0  0  0  0  0  0
    5.0320   -2.4089    4.5565 C   0  0  0  0  0  0  0  0  0  0  0  0
    5.7044   -3.8789    5.1693 S   0  0  0  0  0  0  0  0  0  0  0  0
    8.9454   -5.8118    6.5066 H   0  0  0  0  0  0  0  0  0  0  0  0
    7.2836   -5.7196    5.9729 H   0  0  0  0  0  0  0  0  0  0  0  0
    8.0603   -1.1977    5.3701 H   0  0  0  0  0  0  0  0  0  0  0  0
    8.2483   -0.1017    3.3936 H   0  0  0  0  0  0  0  0  0  0  0  0
    9.7865    1.7206    3.4051 H   0  0  0  0  0  0  0  0  0  0  0  0
    8.9092    5.1481    4.3855 H   0  0  0  0  0  0  0  0  0  0  0  0
   13.5596    2.4843    1.5569 H   0  0  0  0  0  0  0  0  0  0  0  0
   15.7452    3.6012    2.0315 H   0  0  0  0  0  0  0  0  0  0  0  0
   15.8488    5.5930    3.4927 H   0  0  0  0  0  0  0  0  0  0  0  0
   13.7568    6.5364    4.5204 H   0  0  0  0  0  0  0  0  0  0  0  0
    6.5733    4.4683    4.2233 H   0  0  0  0  0  0  0  0  0  0  0  0
    5.0238    2.5979    4.3639 H   0  0  0  0  0  0  0  0  0  0  0  0
    3.8627    0.8923    3.1575 H   0  0  0  0  0  0  0  0  0  0  0  0
    1.8402   -2.8573    3.9675 H   0  0  0  0  0  0  0  0  0  0  0  0
    2.9089   -3.9713    4.7385 H   0  0  0  0  0  0  0  0  0  0  0  0
  1  2  1  0  0  0  0
  1 30  1  0  0  0  0
  1 31  1  0  0  0  0
  2  3  2  0  0  0  0
  2  4  1  0  0  0  0
  4  5  2  0  0  0  0
  4 29  1  0  0  0  0
  5  6  1  0  0  0  0
  5 32  1  0  0  0  0
  6  7  1  0  0  0  0
  6 28  2  0  0  0  0
  7  8  1  0  0  0  0
  7 24  2  0  0  0  0
  8  9  1  0  0  0  0
  8 23  2  0  0  0  0
  9 10  2  0  0  0  0
  9 33  1  0  0  0  0
 10 11  1  0  0  0  0
 10 34  1  0  0  0  0
 11 12  1  0  0  0  0
 11 22  2  0  0  0  0
 12 13  1  0  0  0  0
 12 35  1  0  0  0  0
 13 14  2  0  0  0  0
 13 21  1  0  0  0  0
 14 15  1  0  0  0  0
 15 16  1  0  0  0  0
 15 20  2  0  0  0  0
 16 17  2  0  0  0  0
 16 36  1  0  0  0  0
 17 18  1  0  0  0  0
 17 37  1  0  0  0  0
 18 19  2  0  0  0  0
 18 38  1  0  0  0  0
 19 20  1  0  0  0  0
 19 39  1  0  0  0  0
 20 21  1  0  0  0  0
 22 23  1  0  0  0  0
 22 40  1  0  0  0  0
 23 41  1  0  0  0  0
 24 25  1  0  0  0  0
 24 42  1  0  0  0  0
 25 26  2  0  0  0  0
 26 27  1  0  0  0  0
 26 28  1  0  0  0  0
 27 43  1  0  0  0  0
 27 44  1  0  0  0  0
 28 29  1  0  0  0  0
M  END
$$$$
