CHEMBL3916488
 OpenBabel04072215373D

 52 55  0  0  0  0  0  0  0  0999 V2000
    2.6186    0.2091    0.0863 C   0  0  0  0  0  0  0  0  0  0  0  0
    1.1222    0.0598    0.1347 C   0  0  0  0  0  0  0  0  0  0  0  0
    0.3732    1.2566    0.2054 C   0  0  0  0  0  0  0  0  0  0  0  0
   -1.0220    1.2611    0.1533 C   0  0  0  0  0  0  0  0  0  0  0  0
   -1.7862    2.4060    0.2410 O   0  0  0  0  0  0  0  0  0  0  0  0
   -1.3373    3.5437   -0.4254 C   0  0  0  0  0  0  0  0  0  0  0  0
   -1.7726    4.7661    0.0483 C   0  0  0  0  0  0  0  0  0  0  0  0
   -1.3171    5.8724   -0.6407 C   0  0  0  0  0  0  0  0  0  0  0  0
   -1.7405    7.1519   -0.2369 N   0  0  0  0  0  0  0  0  0  0  0  0
   -1.4277    8.3129   -0.9156 C   0  0  0  0  0  0  0  0  0  0  0  0
   -0.7816    8.4248   -1.9480 O   0  0  0  0  0  0  0  0  0  0  0  0
   -1.9476    9.5528   -0.2597 C   0  0  0  0  0  0  0  0  0  0  0  0
   -1.7746   10.9017   -0.9298 C   0  0  0  0  0  0  0  0  0  0  0  0
   -0.9517   10.5582    0.2761 C   0  0  0  0  0  0  0  0  0  0  0  0
   -0.4820    5.7599   -1.6805 N   0  0  0  0  0  0  0  0  0  0  0  0
   -0.1349    4.5328   -2.0671 C   0  0  0  0  0  0  0  0  0  0  0  0
   -0.5415    3.4001   -1.4995 N   0  0  0  0  0  0  0  0  0  0  0  0
   -1.6878    0.0487    0.0770 C   0  0  0  0  0  0  0  0  0  0  0  0
   -0.9612   -1.1489    0.0449 C   0  0  0  0  0  0  0  0  0  0  0  0
    0.4430   -1.1762    0.0947 C   0  0  0  0  0  0  0  0  0  0  0  0
    1.1636   -2.4080    0.1303 N   0  0  0  0  0  0  0  0  0  0  0  0
    0.6098   -3.6596    0.3846 C   0  0  0  0  0  0  0  0  0  0  0  0
   -0.5817   -3.8879    0.5661 O   0  0  0  0  0  0  0  0  0  0  0  0
    1.5711   -4.6630    0.4963 N   0  0  0  0  0  0  0  0  0  0  0  0
    1.1775   -5.9939    0.7851 C   0  0  0  0  0  0  0  0  0  0  0  0
    1.8156   -6.6907    1.8143 C   0  0  0  0  0  0  0  0  0  0  0  0
    1.3862   -7.9751    2.1745 C   0  0  0  0  0  0  0  0  0  0  0  0
    0.3481   -8.6059    1.4732 C   0  0  0  0  0  0  0  0  0  0  0  0
   -0.0553   -9.9225    1.8718 C   0  0  0  0  0  0  0  0  0  0  0  0
   -0.3433  -10.9886    2.2288 N   0  0  0  0  0  0  0  0  0  0  0  0
   -0.2608   -7.9317    0.4130 C   0  0  0  0  0  0  0  0  0  0  0  0
   -1.5217   -8.6559   -0.5258 Cl  0  0  0  0  0  0  0  0  0  0  0  0
    0.1441   -6.6308    0.0788 C   0  0  0  0  0  0  0  0  0  0  0  0
    2.9173    1.2521    0.2570 H   0  0  0  0  0  0  0  0  0  0  0  0
    2.9949   -0.0719   -0.9023 H   0  0  0  0  0  0  0  0  0  0  0  0
    3.1032   -0.3893    0.8610 H   0  0  0  0  0  0  0  0  0  0  0  0
    0.8993    2.2050    0.2814 H   0  0  0  0  0  0  0  0  0  0  0  0
   -2.4315    4.8295    0.9020 H   0  0  0  0  0  0  0  0  0  0  0  0
   -2.3195    7.2227    0.5847 H   0  0  0  0  0  0  0  0  0  0  0  0
   -2.8735    9.4290    0.2920 H   0  0  0  0  0  0  0  0  0  0  0  0
   -2.5612   11.6379   -0.8176 H   0  0  0  0  0  0  0  0  0  0  0  0
   -1.2726   10.9418   -1.8922 H   0  0  0  0  0  0  0  0  0  0  0  0
   -1.1804   11.0596    1.2075 H   0  0  0  0  0  0  0  0  0  0  0  0
    0.1055   10.3692    0.1162 H   0  0  0  0  0  0  0  0  0  0  0  0
    0.5428    4.4562   -2.9092 H   0  0  0  0  0  0  0  0  0  0  0  0
   -2.7725    0.0115    0.0365 H   0  0  0  0  0  0  0  0  0  0  0  0
   -1.5451   -2.0591   -0.0435 H   0  0  0  0  0  0  0  0  0  0  0  0
    2.1647   -2.3564    0.0202 H   0  0  0  0  0  0  0  0  0  0  0  0
    2.4413   -4.3595    0.9087 H   0  0  0  0  0  0  0  0  0  0  0  0
    2.6057   -6.2215    2.3940 H   0  0  0  0  0  0  0  0  0  0  0  0
    1.8568   -8.4773    3.0192 H   0  0  0  0  0  0  0  0  0  0  0  0
   -0.3548   -6.1116   -0.7394 H   0  0  0  0  0  0  0  0  0  0  0  0
  1  2  1  0  0  0  0
  1 34  1  0  0  0  0
  1 35  1  0  0  0  0
  1 36  1  0  0  0  0
  2  3  1  0  0  0  0
  2 20  2  0  0  0  0
  3  4  2  0  0  0  0
  3 37  1  0  0  0  0
  4  5  1  0  0  0  0
  4 18  1  0  0  0  0
  5  6  1  0  0  0  0
  6  7  1  0  0  0  0
  6 17  2  0  0  0  0
  7  8  2  0  0  0  0
  7 38  1  0  0  0  0
  8  9  1  0  0  0  0
  8 15  1  0  0  0  0
  9 10  1  0  0  0  0
  9 39  1  0  0  0  0
 10 11  2  0  0  0  0
 10 12  1  0  0  0  0
 12 13  1  0  0  0  0
 12 14  1  0  0  0  0
 12 40  1  0  0  0  0
 13 14  1  0  0  0  0
 13 41  1  0  0  0  0
 13 42  1  0  0  0  0
 14 43  1  0  0  0  0
 14 44  1  0  0  0  0
 15 16  2  0  0  0  0
 16 17  1  0  0  0  0
 16 45  1  0  0  0  0
 18 19  2  0  0  0  0
 18 46  1  0  0  0  0
 19 20  1  0  0  0  0
 19 47  1  0  0  0  0
 20 21  1  0  0  0  0
 21 22  1  0  0  0  0
 21 48  1  0  0  0  0
 22 23  2  0  0  0  0
 22 24  1  0  0  0  0
 24 25  1  0  0  0  0
 24 49  1  0  0  0  0
 25 26  1  0  0  0  0
 25 33  2  0  0  0  0
 26 27  2  0  0  0  0
 26 50  1  0  0  0  0
 27 28  1  0  0  0  0
 27 51  1  0  0  0  0
 28 29  1  0  0  0  0
 28 31  2  0  0  0  0
 29 30  3  0  0  0  0
 31 32  1  0  0  0  0
 31 33  1  0  0  0  0
 33 52  1  0  0  0  0
M  END
$$$$
