CHEMBL1704021
 OpenBabel04072215363D

 41 42  0  0  0  0  0  0  0  0999 V2000
    1.0048   -1.0191   -1.5757 C   0  0  0  0  0  0  0  0  0  0  0  0
    2.5465   -0.9683   -1.6783 C   0  0  0  0  0  0  0  0  0  0  0  0
    3.0026   -1.9391   -2.7819 C   0  0  0  0  0  0  0  0  0  0  0  0
    3.0228    0.4803   -1.9767 C   0  0  0  0  0  0  0  0  0  0  0  0
    2.5149    1.1136   -3.2656 C   0  0  0  0  0  0  0  0  0  0  0  0
    1.8014    0.5864   -4.0993 O   0  0  0  0  0  0  0  0  0  0  0  0
    2.9625    2.3867   -3.4081 O   0  0  0  0  0  0  0  0  0  0  0  0
    3.0835   -1.4312   -0.2919 C   0  0  0  0  0  0  0  0  0  0  0  0
    4.5869   -1.3842   -0.0839 C   0  0  0  0  0  0  0  0  0  0  0  0
    5.1065   -0.4088    0.4591 O   0  0  0  0  0  0  0  0  0  0  0  0
    5.2606   -2.4774   -0.5739 N   0  0  0  0  0  0  0  0  0  0  0  0
    6.6260   -2.5807   -0.4759 C   0  0  0  0  0  0  0  0  0  0  0  0
    7.4443   -2.2888    0.6347 C   0  0  0  0  0  0  0  0  0  0  0  0
    8.7418   -2.5408    0.2260 C   0  0  0  0  0  0  0  0  0  0  0  0
   10.0176   -2.4619    0.9366 C   0  0  0  0  0  0  0  0  0  0  0  0
   11.1630   -3.1222    0.4670 C   0  0  0  0  0  0  0  0  0  0  0  0
   12.3671   -3.0605    1.1680 C   0  0  0  0  0  0  0  0  0  0  0  0
   12.4481   -2.3366    2.3581 C   0  0  0  0  0  0  0  0  0  0  0  0
   11.3209   -1.6802    2.8403 C   0  0  0  0  0  0  0  0  0  0  0  0
   10.1187   -1.7397    2.1367 C   0  0  0  0  0  0  0  0  0  0  0  0
    8.6089   -2.8791   -1.0979 N   0  0  0  0  0  0  0  0  0  0  0  0
    7.3361   -3.0448   -1.5020 N   0  0  0  0  0  0  0  0  0  0  0  0
    0.5130   -0.7789   -2.5223 H   0  0  0  0  0  0  0  0  0  0  0  0
    0.6378   -0.3143   -0.8211 H   0  0  0  0  0  0  0  0  0  0  0  0
    0.6655   -2.0209   -1.2862 H   0  0  0  0  0  0  0  0  0  0  0  0
    2.5101   -1.7393   -3.7384 H   0  0  0  0  0  0  0  0  0  0  0  0
    2.7657   -2.9750   -2.5150 H   0  0  0  0  0  0  0  0  0  0  0  0
    4.0794   -1.8669   -2.9608 H   0  0  0  0  0  0  0  0  0  0  0  0
    4.1170    0.5000   -2.0316 H   0  0  0  0  0  0  0  0  0  0  0  0
    2.7073    1.1336   -1.1543 H   0  0  0  0  0  0  0  0  0  0  0  0
    3.5343    2.6872   -2.6849 H   0  0  0  0  0  0  0  0  0  0  0  0
    2.7446   -2.4535   -0.0740 H   0  0  0  0  0  0  0  0  0  0  0  0
    2.6476   -0.8027    0.4976 H   0  0  0  0  0  0  0  0  0  0  0  0
    4.8778   -2.9934   -1.3517 H   0  0  0  0  0  0  0  0  0  0  0  0
    7.1179   -1.9804    1.6177 H   0  0  0  0  0  0  0  0  0  0  0  0
   11.1341   -3.7206   -0.4427 H   0  0  0  0  0  0  0  0  0  0  0  0
   13.2440   -3.5836    0.7938 H   0  0  0  0  0  0  0  0  0  0  0  0
   13.3840   -2.2942    2.9078 H   0  0  0  0  0  0  0  0  0  0  0  0
   11.3772   -1.1172    3.7720 H   0  0  0  0  0  0  0  0  0  0  0  0
    9.2539   -1.2148    2.5400 H   0  0  0  0  0  0  0  0  0  0  0  0
    9.3480   -3.0253   -1.7758 H   0  0  0  0  0  0  0  0  0  0  0  0
  1  2  1  0  0  0  0
  1 23  1  0  0  0  0
  1 24  1  0  0  0  0
  1 25  1  0  0  0  0
  2  3  1  0  0  0  0
  2  4  1  0  0  0  0
  2  8  1  0  0  0  0
  3 26  1  0  0  0  0
  3 27  1  0  0  0  0
  3 28  1  0  0  0  0
  4  5  1  0  0  0  0
  4 29  1  0  0  0  0
  4 30  1  0  0  0  0
  5  6  2  0  0  0  0
  5  7  1  0  0  0  0
  7 31  1  0  0  0  0
  8  9  1  0  0  0  0
  8 32  1  0  0  0  0
  8 33  1  0  0  0  0
  9 10  2  0  0  0  0
  9 11  1  0  0  0  0
 11 12  1  0  0  0  0
 11 34  1  0  0  0  0
 12 13  1  0  0  0  0
 12 22  2  0  0  0  0
 13 14  2  0  0  0  0
 13 35  1  0  0  0  0
 14 15  1  0  0  0  0
 14 21  1  0  0  0  0
 15 16  1  0  0  0  0
 15 20  2  0  0  0  0
 16 17  2  0  0  0  0
 16 36  1  0  0  0  0
 17 18  1  0  0  0  0
 17 37  1  0  0  0  0
 18 19  2  0  0  0  0
 18 38  1  0  0  0  0
 19 20  1  0  0  0  0
 19 39  1  0  0  0  0
 20 40  1  0  0  0  0
 21 22  1  0  0  0  0
 21 41  1  0  0  0  0
M  END
$$$$
