CHEMBL234009
 OpenBabel04072215363D

 46 48  0  0  0  0  0  0  0  0999 V2000
    0.8362    0.5798   -0.1104 C   0  0  0  0  0  0  0  0  0  0  0  0
    2.2528    0.6497   -0.2566 O   0  0  0  0  0  0  0  0  0  0  0  0
    2.9467    1.2202    0.7763 C   0  0  0  0  0  0  0  0  0  0  0  0
    2.4660    1.1934    2.0853 C   0  0  0  0  0  0  0  0  0  0  0  0
    3.2091    1.7116    3.1430 C   0  0  0  0  0  0  0  0  0  0  0  0
    4.4679    2.2673    2.9282 C   0  0  0  0  0  0  0  0  0  0  0  0
    5.2205    2.8372    3.9834 N   0  0  0  0  0  0  0  0  0  0  0  0
    4.7118    3.2383    5.2183 C   0  0  0  0  0  0  0  0  0  0  0  0
    3.5344    3.1126    5.5472 O   0  0  0  0  0  0  0  0  0  0  0  0
    5.6585    3.9001    6.0969 C   0  0  0  0  0  0  0  0  0  0  0  0
    7.0275    4.0699    5.9510 C   0  0  0  0  0  0  0  0  0  0  0  0
    7.4230    4.8873    7.0154 C   0  0  0  0  0  0  0  0  0  0  0  0
    6.4212    5.1476    7.8482 N   0  0  0  0  0  0  0  0  0  0  0  0
    5.3487    4.5364    7.2929 N   0  0  0  0  0  0  0  0  0  0  0  0
    4.0703    4.6126    8.0037 C   0  0  0  0  0  0  0  0  0  0  0  0
    3.8784    5.9081    8.8144 C   0  0  0  0  0  0  0  0  0  0  0  0
    2.5557    6.0154    9.5394 C   0  0  0  0  0  0  0  0  0  0  0  0
    2.5141    6.1597   10.9318 C   0  0  0  0  0  0  0  0  0  0  0  0
    1.2856    6.3389   11.5536 C   0  0  0  0  0  0  0  0  0  0  0  0
    0.1081    6.3843   10.8941 N   0  0  0  0  0  0  0  0  0  0  0  0
    0.1665    6.2444    9.5523 C   0  0  0  0  0  0  0  0  0  0  0  0
    1.3431    6.0612    8.8420 C   0  0  0  0  0  0  0  0  0  0  0  0
    4.9827    2.2601    1.6239 C   0  0  0  0  0  0  0  0  0  0  0  0
    4.2177    1.7720    0.5384 C   0  0  0  0  0  0  0  0  0  0  0  0
    4.8514    1.8811   -0.6805 O   0  0  0  0  0  0  0  0  0  0  0  0
    4.0093    2.0688   -1.8156 C   0  0  0  0  0  0  0  0  0  0  0  0
    0.4273    0.1230   -1.0150 H   0  0  0  0  0  0  0  0  0  0  0  0
    0.4098    1.5841   -0.0111 H   0  0  0  0  0  0  0  0  0  0  0  0
    0.5341   -0.0596    0.7258 H   0  0  0  0  0  0  0  0  0  0  0  0
    1.5127    0.7492    2.3476 H   0  0  0  0  0  0  0  0  0  0  0  0
    2.7790    1.6309    4.1314 H   0  0  0  0  0  0  0  0  0  0  0  0
    6.1747    3.0841    3.7589 H   0  0  0  0  0  0  0  0  0  0  0  0
    7.6610    3.6954    5.1609 H   0  0  0  0  0  0  0  0  0  0  0  0
    8.4008    5.3040    7.2187 H   0  0  0  0  0  0  0  0  0  0  0  0
    4.0276    3.7360    8.6620 H   0  0  0  0  0  0  0  0  0  0  0  0
    3.2649    4.5363    7.2731 H   0  0  0  0  0  0  0  0  0  0  0  0
    3.9693    6.7773    8.1487 H   0  0  0  0  0  0  0  0  0  0  0  0
    4.6870    6.0073    9.5498 H   0  0  0  0  0  0  0  0  0  0  0  0
    3.4193    6.1498   11.5303 H   0  0  0  0  0  0  0  0  0  0  0  0
    1.2153    6.4656   12.6301 H   0  0  0  0  0  0  0  0  0  0  0  0
   -0.7918    6.3027    9.0414 H   0  0  0  0  0  0  0  0  0  0  0  0
    1.3095    5.9847    7.7613 H   0  0  0  0  0  0  0  0  0  0  0  0
    5.9647    2.6678    1.4127 H   0  0  0  0  0  0  0  0  0  0  0  0
    4.6363    2.4433   -2.6298 H   0  0  0  0  0  0  0  0  0  0  0  0
    3.2280    2.8159   -1.6323 H   0  0  0  0  0  0  0  0  0  0  0  0
    3.5873    1.1195   -2.1551 H   0  0  0  0  0  0  0  0  0  0  0  0
  1  2  1  0  0  0  0
  1 27  1  0  0  0  0
  1 28  1  0  0  0  0
  1 29  1  0  0  0  0
  2  3  1  0  0  0  0
  3  4  1  0  0  0  0
  3 24  2  0  0  0  0
  4  5  2  0  0  0  0
  4 30  1  0  0  0  0
  5  6  1  0  0  0  0
  5 31  1  0  0  0  0
  6  7  1  0  0  0  0
  6 23  2  0  0  0  0
  7  8  1  0  0  0  0
  7 32  1  0  0  0  0
  8  9  2  0  0  0  0
  8 10  1  0  0  0  0
 10 11  2  0  0  0  0
 10 14  1  0  0  0  0
 11 12  1  0  0  0  0
 11 33  1  0  0  0  0
 12 13  2  0  0  0  0
 12 34  1  0  0  0  0
 13 14  1  0  0  0  0
 14 15  1  0  0  0  0
 15 16  1  0  0  0  0
 15 35  1  0  0  0  0
 15 36  1  0  0  0  0
 16 17  1  0  0  0  0
 16 37  1  0  0  0  0
 16 38  1  0  0  0  0
 17 18  1  0  0  0  0
 17 22  2  0  0  0  0
 18 19  2  0  0  0  0
 18 39  1  0  0  0  0
 19 20  1  0  0  0  0
 19 40  1  0  0  0  0
 20 21  2  0  0  0  0
 21 22  1  0  0  0  0
 21 41  1  0  0  0  0
 22 42  1  0  0  0  0
 23 24  1  0  0  0  0
 23 43  1  0  0  0  0
 24 25  1  0  0  0  0
 25 26  1  0  0  0  0
 26 44  1  0  0  0  0
 26 45  1  0  0  0  0
 26 46  1  0  0  0  0
M  END
$$$$
