CHEMBL3656044
 OpenBabel04072215373D

 58 61  0  0  1  0  0  0  0  0999 V2000
   -0.5622    0.9838    2.4790 C   0  0  0  0  0  0  0  0  0  0  0  0
   -1.7718    0.9842    1.6146 C   0  0  0  0  0  0  0  0  0  0  0  0
   -2.4162    2.1208    1.0536 C   0  0  0  0  0  0  0  0  0  0  0  0
   -3.4787    1.6485    0.3229 C   0  0  0  0  0  0  0  0  0  0  0  0
   -3.5381    0.2945    0.3888 O   0  0  0  0  0  0  0  0  0  0  0  0
   -2.5030   -0.1182    1.1862 C   0  0  0  0  0  0  0  0  0  0  0  0
   -2.3378   -1.5353    1.4590 C   0  0  0  0  0  0  0  0  0  0  0  0
   -1.4742   -1.9465    2.2311 O   0  0  0  0  0  0  0  0  0  0  0  0
   -3.2081   -2.3463    0.7358 N   0  0  0  0  0  0  0  0  0  0  0  0
   -3.2767   -3.7596    0.7675 C   0  0  0  0  0  0  0  0  0  0  0  0
   -2.6263   -4.5245    1.7341 C   0  0  0  0  0  0  0  0  0  0  0  0
   -2.6354   -5.9189    1.6672 C   0  0  0  0  0  0  0  0  0  0  0  0
   -3.3162   -6.5611    0.6411 C   0  0  0  0  0  0  0  0  0  0  0  0
   -4.0738   -5.8134   -0.2671 C   0  0  0  0  0  0  0  0  0  0  0  0
   -4.8328   -6.3696   -1.2746 O   0  0  0  0  0  0  0  0  0  0  0  0
   -5.3910   -7.6185   -1.1023 C   0  0  0  0  0  0  0  0  0  0  0  0
   -5.9013   -8.0901    0.1042 C   0  0  0  0  0  0  0  0  0  0  0  0
   -6.4051   -9.3780    0.1402 C   0  0  0  0  0  0  0  0  0  0  0  0
   -6.4791  -10.1874   -0.9373 N   0  0  0  0  0  0  0  0  0  0  0  0
   -6.0339   -9.6820   -2.1138 C   0  0  0  0  0  0  0  0  0  0  0  0
   -6.1939  -10.5818   -3.2494 C   0  0  0  0  0  0  0  0  0  0  0  0
   -5.8860  -10.4419   -4.5912 C   0  0  0  0  0  0  0  0  0  0  0  0
   -6.3365  -11.6005   -5.2876 C   0  0  0  0  0  0  0  0  0  0  0  0
   -6.3065  -11.8110   -6.7269 C   0  0  0  0  0  0  0  0  0  0  0  0
   -5.8570  -10.9867   -7.5164 O   0  0  0  0  0  0  0  0  0  0  0  0
   -6.9127  -12.9782   -7.0954 O   0  0  0  0  0  0  0  0  0  0  0  0
   -7.3881  -13.0017   -8.4493 C   0  0  0  0  0  0  0  0  0  0  0  0
   -8.8048  -12.4099   -8.4813 C   0  0  3  0  0  0  0  0  0  0  0  0
   -8.8124  -11.0461   -8.0396 O   0  0  0  0  0  0  0  0  0  0  0  0
   -9.4127  -12.4967   -9.8834 C   0  0  0  0  0  0  0  0  0  0  0  0
  -10.7405  -11.9771   -9.9196 O   0  0  0  0  0  0  0  0  0  0  0  0
   -6.8725  -12.4422   -4.3290 C   0  0  0  0  0  0  0  0  0  0  0  0
   -6.7755  -11.8232   -3.1121 N   0  0  0  0  0  0  0  0  0  0  0  0
   -5.4895   -8.4116   -2.2406 C   0  0  0  0  0  0  0  0  0  0  0  0
   -4.0281   -4.4134   -0.2197 C   0  0  0  0  0  0  0  0  0  0  0  0
   -0.1688    1.9980    2.6051 H   0  0  0  0  0  0  0  0  0  0  0  0
    0.2308    0.3720    2.0368 H   0  0  0  0  0  0  0  0  0  0  0  0
   -0.7964    0.5888    3.4724 H   0  0  0  0  0  0  0  0  0  0  0  0
   -2.1353    3.1594    1.1710 H   0  0  0  0  0  0  0  0  0  0  0  0
   -4.2467    2.1249   -0.2703 H   0  0  0  0  0  0  0  0  0  0  0  0
   -3.7851   -1.8588    0.0567 H   0  0  0  0  0  0  0  0  0  0  0  0
   -2.0967   -4.0699    2.5646 H   0  0  0  0  0  0  0  0  0  0  0  0
   -2.1012   -6.4977    2.4155 H   0  0  0  0  0  0  0  0  0  0  0  0
   -3.2632   -7.6438    0.5770 H   0  0  0  0  0  0  0  0  0  0  0  0
   -5.8933   -7.4888    1.0056 H   0  0  0  0  0  0  0  0  0  0  0  0
   -6.7720   -9.8058    1.0690 H   0  0  0  0  0  0  0  0  0  0  0  0
   -5.4295   -9.5758   -5.0537 H   0  0  0  0  0  0  0  0  0  0  0  0
   -7.4088  -14.0499   -8.7656 H   0  0  0  0  0  0  0  0  0  0  0  0
   -6.7063  -12.4700   -9.1234 H   0  0  0  0  0  0  0  0  0  0  0  0
   -9.4378  -12.9448   -7.7642 H   0  0  0  0  0  0  0  0  0  0  0  0
   -8.2309  -10.5275   -8.6264 H   0  0  0  0  0  0  0  0  0  0  0  0
   -9.4519  -13.5352  -10.2233 H   0  0  0  0  0  0  0  0  0  0  0  0
   -8.8214  -11.9142  -10.5970 H   0  0  0  0  0  0  0  0  0  0  0  0
  -11.1343  -12.0891   -9.0361 H   0  0  0  0  0  0  0  0  0  0  0  0
   -7.3433  -13.4126   -4.4182 H   0  0  0  0  0  0  0  0  0  0  0  0
   -7.1108  -12.1801   -2.2252 H   0  0  0  0  0  0  0  0  0  0  0  0
   -5.1470   -8.0374   -3.1978 H   0  0  0  0  0  0  0  0  0  0  0  0
   -4.5674   -3.8469   -0.9756 H   0  0  0  0  0  0  0  0  0  0  0  0
  1  2  1  0  0  0  0
  1 36  1  0  0  0  0
  1 37  1  0  0  0  0
  1 38  1  0  0  0  0
  2  3  1  0  0  0  0
  2  6  2  0  0  0  0
  3  4  2  0  0  0  0
  3 39  1  0  0  0  0
  4  5  1  0  0  0  0
  4 40  1  0  0  0  0
  5  6  1  0  0  0  0
  6  7  1  0  0  0  0
  7  8  2  0  0  0  0
  7  9  1  0  0  0  0
  9 10  1  0  0  0  0
  9 41  1  0  0  0  0
 10 11  1  0  0  0  0
 10 35  2  0  0  0  0
 11 12  2  0  0  0  0
 11 42  1  0  0  0  0
 12 13  1  0  0  0  0
 12 43  1  0  0  0  0
 13 14  2  0  0  0  0
 13 44  1  0  0  0  0
 14 15  1  0  0  0  0
 14 35  1  0  0  0  0
 15 16  1  0  0  0  0
 16 17  1  0  0  0  0
 16 34  2  0  0  0  0
 17 18  2  0  0  0  0
 17 45  1  0  0  0  0
 18 19  1  0  0  0  0
 18 46  1  0  0  0  0
 19 20  2  0  0  0  0
 20 21  1  0  0  0  0
 20 34  1  0  0  0  0
 21 22  2  0  0  0  0
 21 33  1  0  0  0  0
 22 23  1  0  0  0  0
 22 47  1  0  0  0  0
 23 24  1  0  0  0  0
 23 32  2  0  0  0  0
 24 25  2  0  0  0  0
 24 26  1  0  0  0  0
 26 27  1  0  0  0  0
 27 28  1  0  0  0  0
 27 48  1  0  0  0  0
 27 49  1  0  0  0  0
 28 29  1  0  0  0  0
 28 30  1  0  0  0  0
 28 50  1  0  0  0  0
 29 51  1  0  0  0  0
 30 31  1  0  0  0  0
 30 52  1  0  0  0  0
 30 53  1  0  0  0  0
 31 54  1  0  0  0  0
 32 33  1  0  0  0  0
 32 55  1  0  0  0  0
 33 56  1  0  0  0  0
 34 57  1  0  0  0  0
 35 58  1  0  0  0  0
M  END
$$$$
