CHEMBL3911073
 OpenBabel04072215373D

 56 60  0  0  0  0  0  0  0  0999 V2000
    3.2252   -5.9864    7.6742 C   0  0  0  0  0  0  0  0  0  0  0  0
    1.9806   -5.3192    7.1048 C   0  0  0  0  0  0  0  0  0  0  0  0
    2.1210   -5.0406    5.6256 C   0  0  0  0  0  0  0  0  0  0  0  0
    2.6429   -3.8114    5.2154 C   0  0  0  0  0  0  0  0  0  0  0  0
    2.8172   -3.5526    3.8599 C   0  0  0  0  0  0  0  0  0  0  0  0
    2.4866   -4.5233    2.8990 C   0  0  0  0  0  0  0  0  0  0  0  0
    1.9712   -5.7696    3.2719 C   0  0  0  0  0  0  0  0  0  0  0  0
    1.6401   -6.8294    2.3596 N   0  0  0  0  0  0  0  0  0  0  0  0
    1.7837   -6.8193    0.9769 C   0  0  0  0  0  0  0  0  0  0  0  0
    2.2336   -5.8543    0.3522 O   0  0  0  0  0  0  0  0  0  0  0  0
    1.3851   -8.0619    0.1616 C   0  0  0  0  0  0  0  0  0  0  0  0
    1.5246   -7.8772   -1.2252 C   0  0  0  0  0  0  0  0  0  0  0  0
    1.2105   -8.8863   -2.1189 C   0  0  0  0  0  0  0  0  0  0  0  0
    0.7682  -10.1215   -1.6460 C   0  0  0  0  0  0  0  0  0  0  0  0
    0.6264  -10.4307   -0.2701 C   0  0  0  0  0  0  0  0  0  0  0  0
    0.2303  -11.7455    0.1136 N   0  0  0  0  0  0  0  0  0  0  0  0
   -0.0226  -12.1397    1.5057 C   0  0  0  0  0  0  0  0  0  0  0  0
   -0.3173  -13.6534    1.8206 C   0  0  0  0  0  0  0  0  0  0  0  0
   -0.4509  -14.6500    0.6925 C   0  0  0  0  0  0  0  0  0  0  0  0
   -0.2307  -14.1681   -0.5912 C   0  0  0  0  0  0  0  0  0  0  0  0
   -0.3869  -15.0655   -1.6435 C   0  0  0  0  0  0  0  0  0  0  0  0
   -0.8455  -16.3286   -1.5349 N   0  0  0  0  0  0  0  0  0  0  0  0
   -1.0546  -16.8059   -0.3142 C   0  0  0  0  0  0  0  0  0  0  0  0
   -1.5110  -18.1187   -0.2573 C   0  0  0  0  0  0  0  0  0  0  0  0
   -1.6279  -18.8060    0.9410 C   0  0  0  0  0  0  0  0  0  0  0  0
   -1.2831  -18.1544    2.1158 C   0  0  0  0  0  0  0  0  0  0  0  0
   -0.9047  -16.7946    2.0851 C   0  0  0  0  0  0  0  0  0  0  0  0
   -0.8027  -16.0560    0.8627 C   0  0  0  0  0  0  0  0  0  0  0  0
    0.1789  -12.7687   -0.9441 C   0  0  0  0  0  0  0  0  0  0  0  0
    0.9231   -9.3440    0.6238 C   0  0  0  0  0  0  0  0  0  0  0  0
    1.7813   -6.0059    4.6489 C   0  0  0  0  0  0  0  0  0  0  0  0
    3.1252   -6.1215    8.7563 H   0  0  0  0  0  0  0  0  0  0  0  0
    4.1217   -5.3829    7.4930 H   0  0  0  0  0  0  0  0  0  0  0  0
    3.3859   -6.9705    7.2224 H   0  0  0  0  0  0  0  0  0  0  0  0
    1.8016   -4.3790    7.6437 H   0  0  0  0  0  0  0  0  0  0  0  0
    1.0987   -5.9432    7.2881 H   0  0  0  0  0  0  0  0  0  0  0  0
    2.9194   -3.0531    5.9462 H   0  0  0  0  0  0  0  0  0  0  0  0
    3.2208   -2.5903    3.5494 H   0  0  0  0  0  0  0  0  0  0  0  0
    2.6536   -4.2548    1.8603 H   0  0  0  0  0  0  0  0  0  0  0  0
    1.2647   -7.6638    2.7766 H   0  0  0  0  0  0  0  0  0  0  0  0
    1.8793   -6.9305   -1.6332 H   0  0  0  0  0  0  0  0  0  0  0  0
    1.3127   -8.7151   -3.1882 H   0  0  0  0  0  0  0  0  0  0  0  0
    0.5370  -10.8420   -2.4251 H   0  0  0  0  0  0  0  0  0  0  0  0
   -0.8724  -11.5512    1.8772 H   0  0  0  0  0  0  0  0  0  0  0  0
    0.8400  -11.8487    2.1173 H   0  0  0  0  0  0  0  0  0  0  0  0
    0.4679  -14.0113    2.4977 H   0  0  0  0  0  0  0  0  0  0  0  0
   -1.2524  -13.6826    2.3979 H   0  0  0  0  0  0  0  0  0  0  0  0
   -0.1375  -14.7849   -2.6639 H   0  0  0  0  0  0  0  0  0  0  0  0
   -1.7725  -18.6231   -1.1870 H   0  0  0  0  0  0  0  0  0  0  0  0
   -1.9555  -19.8439    0.9450 H   0  0  0  0  0  0  0  0  0  0  0  0
   -1.2885  -18.7148    3.0478 H   0  0  0  0  0  0  0  0  0  0  0  0
   -0.6426  -16.3298    3.0319 H   0  0  0  0  0  0  0  0  0  0  0  0
    1.1720  -12.8440   -1.4068 H   0  0  0  0  0  0  0  0  0  0  0  0
   -0.5520  -12.4499   -1.6996 H   0  0  0  0  0  0  0  0  0  0  0  0
    0.8111   -9.5004    1.6895 H   0  0  0  0  0  0  0  0  0  0  0  0
    1.3729   -6.9550    4.9832 H   0  0  0  0  0  0  0  0  0  0  0  0
  1  2  1  0  0  0  0
  1 32  1  0  0  0  0
  1 33  1  0  0  0  0
  1 34  1  0  0  0  0
  2  3  1  0  0  0  0
  2 35  1  0  0  0  0
  2 36  1  0  0  0  0
  3  4  1  0  0  0  0
  3 31  2  0  0  0  0
  4  5  2  0  0  0  0
  4 37  1  0  0  0  0
  5  6  1  0  0  0  0
  5 38  1  0  0  0  0
  6  7  2  0  0  0  0
  6 39  1  0  0  0  0
  7  8  1  0  0  0  0
  7 31  1  0  0  0  0
  8  9  1  0  0  0  0
  8 40  1  0  0  0  0
  9 10  2  0  0  0  0
  9 11  1  0  0  0  0
 11 12  1  0  0  0  0
 11 30  2  0  0  0  0
 12 13  2  0  0  0  0
 12 41  1  0  0  0  0
 13 14  1  0  0  0  0
 13 42  1  0  0  0  0
 14 15  2  0  0  0  0
 14 43  1  0  0  0  0
 15 16  1  0  0  0  0
 15 30  1  0  0  0  0
 16 17  1  0  0  0  0
 16 29  1  0  0  0  0
 17 18  1  0  0  0  0
 17 44  1  0  0  0  0
 17 45  1  0  0  0  0
 18 19  1  0  0  0  0
 18 46  1  0  0  0  0
 18 47  1  0  0  0  0
 19 20  1  0  0  0  0
 19 28  2  0  0  0  0
 20 21  2  0  0  0  0
 20 29  1  0  0  0  0
 21 22  1  0  0  0  0
 21 48  1  0  0  0  0
 22 23  2  0  0  0  0
 23 24  1  0  0  0  0
 23 28  1  0  0  0  0
 24 25  2  0  0  0  0
 24 49  1  0  0  0  0
 25 26  1  0  0  0  0
 25 50  1  0  0  0  0
 26 27  2  0  0  0  0
 26 51  1  0  0  0  0
 27 28  1  0  0  0  0
 27 52  1  0  0  0  0
 29 53  1  0  0  0  0
 29 54  1  0  0  0  0
 30 55  1  0  0  0  0
 31 56  1  0  0  0  0
M  END
$$$$
