CHEMBL3628806
 OpenBabel04072215373D

 51 54  0  0  0  0  0  0  0  0999 V2000
   10.9962   -2.1467    2.6951 C   0  0  0  0  0  0  0  0  0  0  0  0
   10.4280   -3.2889    3.3364 O   0  0  0  0  0  0  0  0  0  0  0  0
    9.1565   -3.6304    2.9538 C   0  0  0  0  0  0  0  0  0  0  0  0
    8.2838   -2.6894    2.3846 C   0  0  0  0  0  0  0  0  0  0  0  0
    7.0292   -3.0235    1.9026 C   0  0  0  0  0  0  0  0  0  0  0  0
    6.3155   -2.0581    1.3153 N   0  0  0  0  0  0  0  0  0  0  0  0
    5.1111   -2.3944    0.8474 C   0  0  0  0  0  0  0  0  0  0  0  0
    4.5496   -3.5970    0.9444 N   0  0  0  0  0  0  0  0  0  0  0  0
    5.3021   -4.5627    1.5159 C   0  0  0  0  0  0  0  0  0  0  0  0
    4.7542   -5.8491    1.6134 O   0  0  0  0  0  0  0  0  0  0  0  0
    3.7025   -6.1300    0.7629 C   0  0  0  0  0  0  0  0  0  0  0  0
    3.8026   -5.8905   -0.6060 C   0  0  0  0  0  0  0  0  0  0  0  0
    2.6979   -6.0692   -1.4320 C   0  0  0  0  0  0  0  0  0  0  0  0
    1.4759   -6.5261   -0.9232 C   0  0  0  0  0  0  0  0  0  0  0  0
    0.3078   -6.5949   -1.7403 N   0  0  0  0  0  0  0  0  0  0  0  0
    0.1596   -5.9740   -2.9681 C   0  0  0  0  0  0  0  0  0  0  0  0
    1.0314   -5.3126   -3.5267 O   0  0  0  0  0  0  0  0  0  0  0  0
   -1.1148   -6.1031   -3.4994 N   0  0  0  0  0  0  0  0  0  0  0  0
   -1.4333   -5.4749   -4.7320 C   0  0  0  0  0  0  0  0  0  0  0  0
   -2.6011   -4.7136   -4.8151 C   0  0  0  0  0  0  0  0  0  0  0  0
   -2.8886   -3.9961   -5.9794 C   0  0  0  0  0  0  0  0  0  0  0  0
   -2.0404   -4.0786   -7.0839 C   0  0  0  0  0  0  0  0  0  0  0  0
   -0.8989   -4.8743   -7.0165 C   0  0  0  0  0  0  0  0  0  0  0  0
    0.2398   -5.0052   -8.5212 Br  0  0  0  0  0  0  0  0  0  0  0  0
   -0.5869   -5.5656   -5.8465 C   0  0  0  0  0  0  0  0  0  0  0  0
    1.4247   -6.8749    0.4365 C   0  0  0  0  0  0  0  0  0  0  0  0
   -0.0313   -7.5139    1.1296 Cl  0  0  0  0  0  0  0  0  0  0  0  0
    2.5239   -6.6806    1.2813 C   0  0  0  0  0  0  0  0  0  0  0  0
    6.5858   -4.3401    2.0306 C   0  0  0  0  0  0  0  0  0  0  0  0
    7.4354   -5.2952    2.6421 C   0  0  0  0  0  0  0  0  0  0  0  0
    8.7084   -4.9458    3.1254 C   0  0  0  0  0  0  0  0  0  0  0  0
    9.3531   -6.0070    3.7004 O   0  0  0  0  0  0  0  0  0  0  0  0
   10.5515   -5.8021    4.4347 C   0  0  0  0  0  0  0  0  0  0  0  0
   12.0806   -2.1875    2.8282 H   0  0  0  0  0  0  0  0  0  0  0  0
   10.6348   -1.2228    3.1605 H   0  0  0  0  0  0  0  0  0  0  0  0
   10.7978   -2.1435    1.6167 H   0  0  0  0  0  0  0  0  0  0  0  0
    8.5717   -1.6451    2.2955 H   0  0  0  0  0  0  0  0  0  0  0  0
    4.5471   -1.6240    0.3341 H   0  0  0  0  0  0  0  0  0  0  0  0
    4.7168   -5.4988   -1.0402 H   0  0  0  0  0  0  0  0  0  0  0  0
    2.8326   -5.8250   -2.4807 H   0  0  0  0  0  0  0  0  0  0  0  0
   -0.5059   -7.0214   -1.3178 H   0  0  0  0  0  0  0  0  0  0  0  0
   -1.8550   -6.1402   -2.8148 H   0  0  0  0  0  0  0  0  0  0  0  0
   -3.2577   -4.6090   -3.9564 H   0  0  0  0  0  0  0  0  0  0  0  0
   -3.7652   -3.3549   -6.0188 H   0  0  0  0  0  0  0  0  0  0  0  0
   -2.2709   -3.5156   -7.9847 H   0  0  0  0  0  0  0  0  0  0  0  0
    0.3187   -6.1650   -5.7987 H   0  0  0  0  0  0  0  0  0  0  0  0
    2.4669   -6.9146    2.3394 H   0  0  0  0  0  0  0  0  0  0  0  0
    7.1055   -6.3285    2.7379 H   0  0  0  0  0  0  0  0  0  0  0  0
   10.6343   -6.6227    5.1560 H   0  0  0  0  0  0  0  0  0  0  0  0
   10.5586   -4.8805    5.0224 H   0  0  0  0  0  0  0  0  0  0  0  0
   11.4146   -5.8625    3.7650 H   0  0  0  0  0  0  0  0  0  0  0  0
  1  2  1  0  0  0  0
  1 34  1  0  0  0  0
  1 35  1  0  0  0  0
  1 36  1  0  0  0  0
  2  3  1  0  0  0  0
  3  4  1  0  0  0  0
  3 31  2  0  0  0  0
  4  5  2  0  0  0  0
  4 37  1  0  0  0  0
  5  6  1  0  0  0  0
  5 29  1  0  0  0  0
  6  7  2  0  0  0  0
  7  8  1  0  0  0  0
  7 38  1  0  0  0  0
  8  9  2  0  0  0  0
  9 10  1  0  0  0  0
  9 29  1  0  0  0  0
 10 11  1  0  0  0  0
 11 12  1  0  0  0  0
 11 28  2  0  0  0  0
 12 13  2  0  0  0  0
 12 39  1  0  0  0  0
 13 14  1  0  0  0  0
 13 40  1  0  0  0  0
 14 15  1  0  0  0  0
 14 26  2  0  0  0  0
 15 16  1  0  0  0  0
 15 41  1  0  0  0  0
 16 17  2  0  0  0  0
 16 18  1  0  0  0  0
 18 19  1  0  0  0  0
 18 42  1  0  0  0  0
 19 20  1  0  0  0  0
 19 25  2  0  0  0  0
 20 21  2  0  0  0  0
 20 43  1  0  0  0  0
 21 22  1  0  0  0  0
 21 44  1  0  0  0  0
 22 23  2  0  0  0  0
 22 45  1  0  0  0  0
 23 24  1  0  0  0  0
 23 25  1  0  0  0  0
 25 46  1  0  0  0  0
 26 27  1  0  0  0  0
 26 28  1  0  0  0  0
 28 47  1  0  0  0  0
 29 30  2  0  0  0  0
 30 31  1  0  0  0  0
 30 48  1  0  0  0  0
 31 32  1  0  0  0  0
 32 33  1  0  0  0  0
 33 49  1  0  0  0  0
 33 50  1  0  0  0  0
 33 51  1  0  0  0  0
M  END
$$$$
