CHEMBL362486
 OpenBabel04072215373D

 56 59  0  0  0  0  0  0  0  0999 V2000
    0.2433   -0.8925    0.4608 C   0  0  0  0  0  0  0  0  0  0  0  0
    1.4968   -1.2822    1.0269 O   0  0  0  0  0  0  0  0  0  0  0  0
    2.2630   -2.1207    0.2633 C   0  0  0  0  0  0  0  0  0  0  0  0
    1.8884   -2.6251   -0.9716 C   0  0  0  0  0  0  0  0  0  0  0  0
    2.7361   -3.4896   -1.6687 C   0  0  0  0  0  0  0  0  0  0  0  0
    3.9779   -3.8901   -1.1700 C   0  0  0  0  0  0  0  0  0  0  0  0
    4.8298   -4.8124   -1.8610 N   0  0  0  0  0  0  0  0  0  0  0  0
    4.5470   -5.3504   -3.1117 C   0  0  0  0  0  0  0  0  0  0  0  0
    3.5525   -5.0649   -3.7736 O   0  0  0  0  0  0  0  0  0  0  0  0
    5.4653   -6.2870   -3.5802 N   0  0  0  0  0  0  0  0  0  0  0  0
    5.3074   -6.7715   -4.9244 C   0  0  0  0  0  0  0  0  0  0  0  0
    5.0995   -5.8612   -5.9559 C   0  0  0  0  0  0  0  0  0  0  0  0
    4.8693   -6.2919   -7.2695 C   0  0  0  0  0  0  0  0  0  0  0  0
    4.8335   -7.6512   -7.6298 C   0  0  0  0  0  0  0  0  0  0  0  0
    4.2905   -7.8901   -9.3155 S   0  0  0  0  0  0  0  0  0  0  0  0
    4.8346   -9.3146  -10.2521 C   0  0  0  0  0  0  0  0  0  0  0  0
    5.6443  -10.3184   -9.7200 C   0  0  0  0  0  0  0  0  0  0  0  0
    5.9177  -11.4217  -10.5000 C   0  0  0  0  0  0  0  0  0  0  0  0
    5.4793  -11.5946  -11.7530 N   0  0  0  0  0  0  0  0  0  0  0  0
    4.7410  -10.6310  -12.2929 C   0  0  0  0  0  0  0  0  0  0  0  0
    4.3223  -10.8979  -13.5737 C   0  0  0  0  0  0  0  0  0  0  0  0
    3.5050  -10.0399  -14.3022 C   0  0  0  0  0  0  0  0  0  0  0  0
    3.0327  -10.4143  -15.5329 O   0  0  0  0  0  0  0  0  0  0  0  0
    2.8076  -11.8189  -15.6829 C   0  0  0  0  0  0  0  0  0  0  0  0
    3.1931   -8.7951  -13.7470 C   0  0  0  0  0  0  0  0  0  0  0  0
    2.4730   -7.7939  -14.3502 O   0  0  0  0  0  0  0  0  0  0  0  0
    2.4902   -7.7557  -15.7799 C   0  0  0  0  0  0  0  0  0  0  0  0
    3.6009   -8.5199  -12.4182 C   0  0  0  0  0  0  0  0  0  0  0  0
    4.3738   -9.4448  -11.6286 C   0  0  0  0  0  0  0  0  0  0  0  0
    5.0239   -8.5695   -6.5888 C   0  0  0  0  0  0  0  0  0  0  0  0
    5.2898   -8.1349   -5.2478 C   0  0  0  0  0  0  0  0  0  0  0  0
    4.3672   -3.3599    0.0691 C   0  0  0  0  0  0  0  0  0  0  0  0
    3.5103   -2.4880    0.7782 C   0  0  0  0  0  0  0  0  0  0  0  0
   -0.2465   -0.1975    1.1490 H   0  0  0  0  0  0  0  0  0  0  0  0
   -0.4201   -1.7564    0.3347 H   0  0  0  0  0  0  0  0  0  0  0  0
    0.3847   -0.3673   -0.4910 H   0  0  0  0  0  0  0  0  0  0  0  0
    0.9408   -2.3832   -1.4392 H   0  0  0  0  0  0  0  0  0  0  0  0
    2.3526   -3.8263   -2.6235 H   0  0  0  0  0  0  0  0  0  0  0  0
    5.7333   -5.0053   -1.4556 H   0  0  0  0  0  0  0  0  0  0  0  0
    5.8305   -6.9279   -2.8900 H   0  0  0  0  0  0  0  0  0  0  0  0
    5.0702   -4.7925   -5.7516 H   0  0  0  0  0  0  0  0  0  0  0  0
    4.6546   -5.5214   -8.0085 H   0  0  0  0  0  0  0  0  0  0  0  0
    6.0700  -10.2719   -8.7257 H   0  0  0  0  0  0  0  0  0  0  0  0
    6.5204  -12.2575  -10.1375 H   0  0  0  0  0  0  0  0  0  0  0  0
    4.6791  -11.8461  -13.9984 H   0  0  0  0  0  0  0  0  0  0  0  0
    2.2842  -11.9923  -16.6264 H   0  0  0  0  0  0  0  0  0  0  0  0
    2.1821  -12.2099  -14.8693 H   0  0  0  0  0  0  0  0  0  0  0  0
    3.7520  -12.3689  -15.7429 H   0  0  0  0  0  0  0  0  0  0  0  0
    2.0430   -6.8098  -16.1053 H   0  0  0  0  0  0  0  0  0  0  0  0
    1.8707   -8.5465  -16.2124 H   0  0  0  0  0  0  0  0  0  0  0  0
    3.5138   -7.7868  -16.1698 H   0  0  0  0  0  0  0  0  0  0  0  0
    3.3218   -7.5539  -11.9975 H   0  0  0  0  0  0  0  0  0  0  0  0
    4.9033   -9.6357   -6.7625 H   0  0  0  0  0  0  0  0  0  0  0  0
    5.3779   -8.8799   -4.4600 H   0  0  0  0  0  0  0  0  0  0  0  0
    5.3261   -3.6094    0.5145 H   0  0  0  0  0  0  0  0  0  0  0  0
    3.8169   -2.0943    1.7464 H   0  0  0  0  0  0  0  0  0  0  0  0
  1  2  1  0  0  0  0
  1 34  1  0  0  0  0
  1 35  1  0  0  0  0
  1 36  1  0  0  0  0
  2  3  1  0  0  0  0
  3  4  1  0  0  0  0
  3 33  2  0  0  0  0
  4  5  2  0  0  0  0
  4 37  1  0  0  0  0
  5  6  1  0  0  0  0
  5 38  1  0  0  0  0
  6  7  1  0  0  0  0
  6 32  2  0  0  0  0
  7  8  1  0  0  0  0
  7 39  1  0  0  0  0
  8  9  2  0  0  0  0
  8 10  1  0  0  0  0
 10 11  1  0  0  0  0
 10 40  1  0  0  0  0
 11 12  1  0  0  0  0
 11 31  2  0  0  0  0
 12 13  2  0  0  0  0
 12 41  1  0  0  0  0
 13 14  1  0  0  0  0
 13 42  1  0  0  0  0
 14 15  1  0  0  0  0
 14 30  2  0  0  0  0
 15 16  1  0  0  0  0
 16 17  1  0  0  0  0
 16 29  2  0  0  0  0
 17 18  2  0  0  0  0
 17 43  1  0  0  0  0
 18 19  1  0  0  0  0
 18 44  1  0  0  0  0
 19 20  2  0  0  0  0
 20 21  1  0  0  0  0
 20 29  1  0  0  0  0
 21 22  2  0  0  0  0
 21 45  1  0  0  0  0
 22 23  1  0  0  0  0
 22 25  1  0  0  0  0
 23 24  1  0  0  0  0
 24 46  1  0  0  0  0
 24 47  1  0  0  0  0
 24 48  1  0  0  0  0
 25 26  1  0  0  0  0
 25 28  2  0  0  0  0
 26 27  1  0  0  0  0
 27 49  1  0  0  0  0
 27 50  1  0  0  0  0
 27 51  1  0  0  0  0
 28 29  1  0  0  0  0
 28 52  1  0  0  0  0
 30 31  1  0  0  0  0
 30 53  1  0  0  0  0
 31 54  1  0  0  0  0
 32 33  1  0  0  0  0
 32 55  1  0  0  0  0
 33 56  1  0  0  0  0
M  END
$$$$
