CHEMBL513495
 OpenBabel04072215383D

 48 52  0  0  0  0  0  0  0  0999 V2000
    3.1545   -0.9075   -0.4678 O   0  0  0  0  0  0  0  0  0  0  0  0
    2.5079   -0.0162    0.0948 C   0  0  0  0  0  0  0  0  0  0  0  0
    3.0145    1.3791    0.0614 C   0  0  0  0  0  0  0  0  0  0  0  0
    2.6540    2.2838    1.0718 C   0  0  0  0  0  0  0  0  0  0  0  0
    3.3819    3.4573    1.2375 C   0  0  0  0  0  0  0  0  0  0  0  0
    4.4833    3.7070    0.4236 C   0  0  0  0  0  0  0  0  0  0  0  0
    4.7923    2.8475   -0.6347 C   0  0  0  0  0  0  0  0  0  0  0  0
    4.0286    1.6959   -0.8657 C   0  0  0  0  0  0  0  0  0  0  0  0
    4.1633    0.9627   -2.0805 N   0  0  0  0  0  0  0  0  0  0  0  0
    5.4970    0.6157   -2.5315 C   0  0  0  0  0  0  0  0  0  0  0  0
    6.0121    1.5134   -3.6450 C   0  0  0  0  0  0  0  0  0  0  0  0
    7.2914    1.2696   -4.1582 C   0  0  0  0  0  0  0  0  0  0  0  0
    7.8194    2.0964   -5.1521 C   0  0  0  0  0  0  0  0  0  0  0  0
    7.1148    3.1757   -5.6588 C   0  0  0  0  0  0  0  0  0  0  0  0
    7.6895    3.9577   -6.5921 N   0  0  0  0  0  0  0  0  0  0  0  0
    6.9671    5.0002   -7.0676 C   0  0  0  0  0  0  0  0  0  0  0  0
    5.6855    5.3029   -6.6610 C   0  0  0  0  0  0  0  0  0  0  0  0
    5.0989    4.4921   -5.6974 C   0  0  0  0  0  0  0  0  0  0  0  0
    5.8156    3.4053   -5.1712 C   0  0  0  0  0  0  0  0  0  0  0  0
    5.2717    2.5694   -4.1807 C   0  0  0  0  0  0  0  0  0  0  0  0
    1.3156   -0.3626    0.8241 C   0  0  0  0  0  0  0  0  0  0  0  0
    1.2808   -1.2788    1.8629 C   0  0  0  0  0  0  0  0  0  0  0  0
   -0.0284   -1.3795    2.2217 N   0  0  0  0  0  0  0  0  0  0  0  0
   -0.7854   -1.0687    1.1205 C   0  0  0  0  0  0  0  0  0  0  0  0
   -2.0192   -1.5310    0.6605 C   0  0  0  0  0  0  0  0  0  0  0  0
   -2.5297   -0.8986   -0.4785 C   0  0  0  0  0  0  0  0  0  0  0  0
   -1.8998    0.2262   -1.0167 C   0  0  0  0  0  0  0  0  0  0  0  0
   -2.6304    1.0512   -2.3421 Cl  0  0  0  0  0  0  0  0  0  0  0  0
   -0.6529    0.6540   -0.5579 C   0  0  0  0  0  0  0  0  0  0  0  0
   -0.0351   -0.1129    0.4404 C   0  0  0  0  0  0  0  0  0  0  0  0
    1.8371    2.0729    1.7607 H   0  0  0  0  0  0  0  0  0  0  0  0
    3.1188    4.1591    2.0259 H   0  0  0  0  0  0  0  0  0  0  0  0
    5.0960    4.5908    0.5909 H   0  0  0  0  0  0  0  0  0  0  0  0
    5.6217    3.1061   -1.2839 H   0  0  0  0  0  0  0  0  0  0  0  0
    3.6034    0.1073   -2.0242 H   0  0  0  0  0  0  0  0  0  0  0  0
    5.4511   -0.4058   -2.9360 H   0  0  0  0  0  0  0  0  0  0  0  0
    6.2138    0.5917   -1.7013 H   0  0  0  0  0  0  0  0  0  0  0  0
    7.8887    0.4390   -3.7887 H   0  0  0  0  0  0  0  0  0  0  0  0
    8.8249    1.9023   -5.5329 H   0  0  0  0  0  0  0  0  0  0  0  0
    7.4768    5.6035   -7.8131 H   0  0  0  0  0  0  0  0  0  0  0  0
    5.1520    6.1481   -7.0786 H   0  0  0  0  0  0  0  0  0  0  0  0
    4.0890    4.7059   -5.3534 H   0  0  0  0  0  0  0  0  0  0  0  0
    4.2621    2.7630   -3.8110 H   0  0  0  0  0  0  0  0  0  0  0  0
    2.0678   -1.8254    2.3705 H   0  0  0  0  0  0  0  0  0  0  0  0
   -0.3830   -1.6774    3.1237 H   0  0  0  0  0  0  0  0  0  0  0  0
   -2.5058   -2.4001    1.0940 H   0  0  0  0  0  0  0  0  0  0  0  0
   -3.4298   -1.2921   -0.9458 H   0  0  0  0  0  0  0  0  0  0  0  0
   -0.1359    1.4820   -1.0320 H   0  0  0  0  0  0  0  0  0  0  0  0
  1  2  2  0  0  0  0
  2  3  1  0  0  0  0
  2 21  1  0  0  0  0
  3  4  1  0  0  0  0
  3  8  2  0  0  0  0
  4  5  2  0  0  0  0
  4 31  1  0  0  0  0
  5  6  1  0  0  0  0
  5 32  1  0  0  0  0
  6  7  2  0  0  0  0
  6 33  1  0  0  0  0
  7  8  1  0  0  0  0
  7 34  1  0  0  0  0
  8  9  1  0  0  0  0
  9 10  1  0  0  0  0
  9 35  1  0  0  0  0
 10 11  1  0  0  0  0
 10 36  1  0  0  0  0
 10 37  1  0  0  0  0
 11 12  1  0  0  0  0
 11 20  2  0  0  0  0
 12 13  2  0  0  0  0
 12 38  1  0  0  0  0
 13 14  1  0  0  0  0
 13 39  1  0  0  0  0
 14 15  1  0  0  0  0
 14 19  2  0  0  0  0
 15 16  2  0  0  0  0
 16 17  1  0  0  0  0
 16 40  1  0  0  0  0
 17 18  2  0  0  0  0
 17 41  1  0  0  0  0
 18 19  1  0  0  0  0
 18 42  1  0  0  0  0
 19 20  1  0  0  0  0
 20 43  1  0  0  0  0
 21 22  2  0  0  0  0
 21 30  1  0  0  0  0
 22 23  1  0  0  0  0
 22 44  1  0  0  0  0
 23 24  1  0  0  0  0
 23 45  1  0  0  0  0
 24 25  1  0  0  0  0
 24 30  2  0  0  0  0
 25 26  2  0  0  0  0
 25 46  1  0  0  0  0
 26 27  1  0  0  0  0
 26 47  1  0  0  0  0
 27 28  1  0  0  0  0
 27 29  2  0  0  0  0
 29 30  1  0  0  0  0
 29 48  1  0  0  0  0
M  END
$$$$
