CHEMBL191160
 OpenBabel04072215363D

 57 60  0  0  0  0  0  0  0  0999 V2000
    9.9794   -4.2743    5.9226 Cl  0  0  0  0  0  0  0  0  0  0  0  0
    9.5100   -3.4269    4.5000 C   0  0  0  0  0  0  0  0  0  0  0  0
   10.4836   -2.8221    3.7069 C   0  0  0  0  0  0  0  0  0  0  0  0
   10.1046   -2.1265    2.5615 C   0  0  0  0  0  0  0  0  0  0  0  0
    8.7557   -2.0536    2.2077 C   0  0  0  0  0  0  0  0  0  0  0  0
    7.7733   -2.6889    2.9831 C   0  0  0  0  0  0  0  0  0  0  0  0
    6.3878   -2.5406    2.7061 N   0  0  0  0  0  0  0  0  0  0  0  0
    5.8452   -2.4864    1.3977 C   0  0  0  0  0  0  0  0  0  0  0  0
    4.5882   -1.9175    1.1843 C   0  0  0  0  0  0  0  0  0  0  0  0
    3.9827   -1.8621   -0.0262 N   0  0  0  0  0  0  0  0  0  0  0  0
    4.6762   -2.4419   -1.0345 C   0  0  0  0  0  0  0  0  0  0  0  0
    5.9179   -3.0474   -0.8590 C   0  0  0  0  0  0  0  0  0  0  0  0
    6.6747   -3.6863   -1.9420 C   0  0  0  0  0  0  0  0  0  0  0  0
    7.4785   -4.8020   -1.7066 C   0  0  0  0  0  0  0  0  0  0  0  0
    8.1870   -5.4591   -2.6559 N   0  0  0  0  0  0  0  0  0  0  0  0
    8.1273   -4.9510   -3.9073 C   0  0  0  0  0  0  0  0  0  0  0  0
    7.3985   -3.8211   -4.2774 C   0  0  0  0  0  0  0  0  0  0  0  0
    7.4811   -3.3389   -5.5823 N   0  0  0  0  0  0  0  0  0  0  0  0
    7.0925   -1.9634   -5.8734 C   0  0  0  0  0  0  0  0  0  0  0  0
    7.8398   -1.4804   -7.1157 C   0  0  0  0  0  0  0  0  0  0  0  0
    7.6316    0.0201   -7.3645 C   0  0  0  0  0  0  0  0  0  0  0  0
    7.9913    0.8767   -6.2200 N   0  0  0  0  0  0  0  0  0  0  0  0
    9.4257    0.8003   -5.8929 C   0  0  0  0  0  0  0  0  0  0  0  0
    9.7592    1.6397   -4.6587 C   0  0  0  0  0  0  0  0  0  0  0  0
    9.3307    3.0886   -4.8421 C   0  0  0  0  0  0  0  0  0  0  0  0
    7.8660    3.1573   -5.2561 C   0  0  0  0  0  0  0  0  0  0  0  0
    7.5864    2.2694   -6.4702 C   0  0  0  0  0  0  0  0  0  0  0  0
    6.6540   -3.2097   -3.2634 C   0  0  0  0  0  0  0  0  0  0  0  0
    6.4981   -3.0737    0.3677 N   0  0  0  0  0  0  0  0  0  0  0  0
    8.1604   -3.3474    4.1539 C   0  0  0  0  0  0  0  0  0  0  0  0
   11.5340   -2.8826    3.9783 H   0  0  0  0  0  0  0  0  0  0  0  0
   10.8531   -1.6399    1.9424 H   0  0  0  0  0  0  0  0  0  0  0  0
    8.4796   -1.4980    1.3156 H   0  0  0  0  0  0  0  0  0  0  0  0
    6.0534   -1.7462    3.2457 H   0  0  0  0  0  0  0  0  0  0  0  0
    4.0267   -1.4686    1.9962 H   0  0  0  0  0  0  0  0  0  0  0  0
    4.1810   -2.4161   -1.9992 H   0  0  0  0  0  0  0  0  0  0  0  0
    7.5785   -5.2180   -0.7055 H   0  0  0  0  0  0  0  0  0  0  0  0
    8.7422   -5.4724   -4.6365 H   0  0  0  0  0  0  0  0  0  0  0  0
    7.1862   -4.0229   -6.2758 H   0  0  0  0  0  0  0  0  0  0  0  0
    7.3561   -1.3175   -5.0295 H   0  0  0  0  0  0  0  0  0  0  0  0
    6.0090   -1.9015   -6.0287 H   0  0  0  0  0  0  0  0  0  0  0  0
    7.4931   -2.0420   -7.9921 H   0  0  0  0  0  0  0  0  0  0  0  0
    8.9090   -1.7072   -7.0256 H   0  0  0  0  0  0  0  0  0  0  0  0
    6.5677    0.1634   -7.5938 H   0  0  0  0  0  0  0  0  0  0  0  0
    8.1919    0.3170   -8.2601 H   0  0  0  0  0  0  0  0  0  0  0  0
   10.0357    1.1291   -6.7439 H   0  0  0  0  0  0  0  0  0  0  0  0
    9.7167   -0.2294   -5.6611 H   0  0  0  0  0  0  0  0  0  0  0  0
   10.8362    1.5930   -4.4605 H   0  0  0  0  0  0  0  0  0  0  0  0
    9.2550    1.2162   -3.7804 H   0  0  0  0  0  0  0  0  0  0  0  0
    9.9529    3.5594   -5.6128 H   0  0  0  0  0  0  0  0  0  0  0  0
    9.4876    3.6476   -3.9133 H   0  0  0  0  0  0  0  0  0  0  0  0
    7.5957    4.1942   -5.4852 H   0  0  0  0  0  0  0  0  0  0  0  0
    7.2342    2.8402   -4.4164 H   0  0  0  0  0  0  0  0  0  0  0  0
    8.1039    2.6721   -7.3507 H   0  0  0  0  0  0  0  0  0  0  0  0
    6.5100    2.3116   -6.6767 H   0  0  0  0  0  0  0  0  0  0  0  0
    6.0566   -2.3333   -3.4974 H   0  0  0  0  0  0  0  0  0  0  0  0
    7.4108   -3.8229    4.7811 H   0  0  0  0  0  0  0  0  0  0  0  0
  1  2  1  0  0  0  0
  2  3  1  0  0  0  0
  2 30  2  0  0  0  0
  3  4  2  0  0  0  0
  3 31  1  0  0  0  0
  4  5  1  0  0  0  0
  4 32  1  0  0  0  0
  5  6  2  0  0  0  0
  5 33  1  0  0  0  0
  6  7  1  0  0  0  0
  6 30  1  0  0  0  0
  7  8  1  0  0  0  0
  7 34  1  0  0  0  0
  8  9  1  0  0  0  0
  8 29  2  0  0  0  0
  9 10  2  0  0  0  0
  9 35  1  0  0  0  0
 10 11  1  0  0  0  0
 11 12  2  0  0  0  0
 11 36  1  0  0  0  0
 12 13  1  0  0  0  0
 12 29  1  0  0  0  0
 13 14  1  0  0  0  0
 13 28  2  0  0  0  0
 14 15  2  0  0  0  0
 14 37  1  0  0  0  0
 15 16  1  0  0  0  0
 16 17  2  0  0  0  0
 16 38  1  0  0  0  0
 17 18  1  0  0  0  0
 17 28  1  0  0  0  0
 18 19  1  0  0  0  0
 18 39  1  0  0  0  0
 19 20  1  0  0  0  0
 19 40  1  0  0  0  0
 19 41  1  0  0  0  0
 20 21  1  0  0  0  0
 20 42  1  0  0  0  0
 20 43  1  0  0  0  0
 21 22  1  0  0  0  0
 21 44  1  0  0  0  0
 21 45  1  0  0  0  0
 22 23  1  0  0  0  0
 22 27  1  0  0  0  0
 23 24  1  0  0  0  0
 23 46  1  0  0  0  0
 23 47  1  0  0  0  0
 24 25  1  0  0  0  0
 24 48  1  0  0  0  0
 24 49  1  0  0  0  0
 25 26  1  0  0  0  0
 25 50  1  0  0  0  0
 25 51  1  0  0  0  0
 26 27  1  0  0  0  0
 26 52  1  0  0  0  0
 26 53  1  0  0  0  0
 27 54  1  0  0  0  0
 27 55  1  0  0  0  0
 28 56  1  0  0  0  0
 30 57  1  0  0  0  0
M  END
$$$$
