CHEMBL3633302
 OpenBabel04072215373D

 49 52  0  0  0  0  0  0  0  0999 V2000
   -0.5561    2.3225    3.3636 N   0  0  0  0  0  0  0  0  0  0  0  0
   -0.8329    1.1395    2.7927 C   0  0  0  0  0  0  0  0  0  0  0  0
   -1.0180    0.0641    3.5488 N   0  0  0  0  0  0  0  0  0  0  0  0
   -1.2431   -0.9157    2.6698 N   0  0  0  0  0  0  0  0  0  0  0  0
   -1.2282   -0.5120    1.3671 C   0  0  0  0  0  0  0  0  0  0  0  0
   -1.4197   -1.2539    0.1951 C   0  0  0  0  0  0  0  0  0  0  0  0
   -1.3599   -0.5712   -1.0095 C   0  0  0  0  0  0  0  0  0  0  0  0
   -1.1021    0.7969   -1.0325 C   0  0  0  0  0  0  0  0  0  0  0  0
   -0.8750    1.5594    0.1451 C   0  0  0  0  0  0  0  0  0  0  0  0
   -0.5144    2.9911    0.0290 C   0  0  0  0  0  0  0  0  0  0  0  0
    0.3829    3.4006   -0.9768 C   0  0  0  0  0  0  0  0  0  0  0  0
    0.7568    4.7329   -1.1288 C   0  0  0  0  0  0  0  0  0  0  0  0
    0.2501    5.6914   -0.2626 C   0  0  0  0  0  0  0  0  0  0  0  0
   -0.6772    5.3386    0.7235 C   0  0  0  0  0  0  0  0  0  0  0  0
   -1.2273    6.2983    1.6082 N   0  0  0  0  0  0  0  0  0  0  0  0
   -1.3678    7.6353    1.2848 C   0  0  0  0  0  0  0  0  0  0  0  0
   -1.1484    8.1106    0.1718 O   0  0  0  0  0  0  0  0  0  0  0  0
   -1.7745    8.4017    2.3697 N   0  0  0  0  0  0  0  0  0  0  0  0
   -2.0329    9.7824    2.1923 C   0  0  0  0  0  0  0  0  0  0  0  0
   -2.7823   10.2327    1.0968 C   0  0  0  0  0  0  0  0  0  0  0  0
   -2.9600   11.5998    0.8532 C   0  0  0  0  0  0  0  0  0  0  0  0
   -3.7697   12.0811   -0.3255 C   0  0  0  0  0  0  0  0  0  0  0  0
   -4.3597   11.0824   -1.0378 F   0  0  0  0  0  0  0  0  0  0  0  0
   -4.7824   12.9092    0.0579 F   0  0  0  0  0  0  0  0  0  0  0  0
   -3.0258   12.7931   -1.2160 F   0  0  0  0  0  0  0  0  0  0  0  0
   -2.3590   12.5210    1.7243 C   0  0  0  0  0  0  0  0  0  0  0  0
   -1.6339   12.0868    2.8485 C   0  0  0  0  0  0  0  0  0  0  0  0
   -0.9766   13.0820    3.7733 C   0  0  0  0  0  0  0  0  0  0  0  0
   -1.1945   14.3792    3.4231 F   0  0  0  0  0  0  0  0  0  0  0  0
   -1.4155   12.9614    5.0567 F   0  0  0  0  0  0  0  0  0  0  0  0
    0.3762   12.9301    3.8250 F   0  0  0  0  0  0  0  0  0  0  0  0
   -1.5011   10.7073    3.0911 C   0  0  0  0  0  0  0  0  0  0  0  0
   -1.0577    3.9949    0.8543 C   0  0  0  0  0  0  0  0  0  0  0  0
   -0.9594    0.8651    1.3881 C   0  0  0  0  0  0  0  0  0  0  0  0
   -0.3306    2.2594    4.3522 H   0  0  0  0  0  0  0  0  0  0  0  0
    0.0511    2.9665    2.8691 H   0  0  0  0  0  0  0  0  0  0  0  0
   -1.4052   -1.8534    3.0239 H   0  0  0  0  0  0  0  0  0  0  0  0
   -1.6139   -2.3230    0.2240 H   0  0  0  0  0  0  0  0  0  0  0  0
   -1.5070   -1.1087   -1.9455 H   0  0  0  0  0  0  0  0  0  0  0  0
   -1.0753    1.2861   -2.0038 H   0  0  0  0  0  0  0  0  0  0  0  0
    0.8130    2.6744   -1.6656 H   0  0  0  0  0  0  0  0  0  0  0  0
    1.4428    5.0252   -1.9191 H   0  0  0  0  0  0  0  0  0  0  0  0
    0.5945    6.7150   -0.3793 H   0  0  0  0  0  0  0  0  0  0  0  0
   -1.8299    5.9551    2.3444 H   0  0  0  0  0  0  0  0  0  0  0  0
   -1.3677    8.1175    3.2507 H   0  0  0  0  0  0  0  0  0  0  0  0
   -3.2254    9.5090    0.4124 H   0  0  0  0  0  0  0  0  0  0  0  0
   -2.4581   13.5880    1.5198 H   0  0  0  0  0  0  0  0  0  0  0  0
   -0.9174   10.3716    3.9458 H   0  0  0  0  0  0  0  0  0  0  0  0
   -1.8098    3.7238    1.5927 H   0  0  0  0  0  0  0  0  0  0  0  0
  1  2  1  0  0  0  0
  1 35  1  0  0  0  0
  1 36  1  0  0  0  0
  2  3  2  0  0  0  0
  2 34  1  0  0  0  0
  3  4  1  0  0  0  0
  4  5  1  0  0  0  0
  4 37  1  0  0  0  0
  5  6  1  0  0  0  0
  5 34  2  0  0  0  0
  6  7  2  0  0  0  0
  6 38  1  0  0  0  0
  7  8  1  0  0  0  0
  7 39  1  0  0  0  0
  8  9  2  0  0  0  0
  8 40  1  0  0  0  0
  9 10  1  0  0  0  0
  9 34  1  0  0  0  0
 10 11  1  0  0  0  0
 10 33  2  0  0  0  0
 11 12  2  0  0  0  0
 11 41  1  0  0  0  0
 12 13  1  0  0  0  0
 12 42  1  0  0  0  0
 13 14  2  0  0  0  0
 13 43  1  0  0  0  0
 14 15  1  0  0  0  0
 14 33  1  0  0  0  0
 15 16  1  0  0  0  0
 15 44  1  0  0  0  0
 16 17  2  0  0  0  0
 16 18  1  0  0  0  0
 18 19  1  0  0  0  0
 18 45  1  0  0  0  0
 19 20  1  0  0  0  0
 19 32  2  0  0  0  0
 20 21  2  0  0  0  0
 20 46  1  0  0  0  0
 21 22  1  0  0  0  0
 21 26  1  0  0  0  0
 22 23  1  0  0  0  0
 22 24  1  0  0  0  0
 22 25  1  0  0  0  0
 26 27  2  0  0  0  0
 26 47  1  0  0  0  0
 27 28  1  0  0  0  0
 27 32  1  0  0  0  0
 28 29  1  0  0  0  0
 28 30  1  0  0  0  0
 28 31  1  0  0  0  0
 32 48  1  0  0  0  0
 33 49  1  0  0  0  0
M  END
$$$$
