CHEMBL3906122
 OpenBabel04072215373D

 69 74  0  0  0  0  0  0  0  0999 V2000
    8.5348    3.6021    3.9124 C   0  0  0  0  0  0  0  0  0  0  0  0
    8.6502    2.2337    3.5286 O   0  0  0  0  0  0  0  0  0  0  0  0
    7.5253    1.4618    3.6719 C   0  0  0  0  0  0  0  0  0  0  0  0
    6.3516    1.8864    4.2973 C   0  0  0  0  0  0  0  0  0  0  0  0
    5.2347    1.0611    4.3213 C   0  0  0  0  0  0  0  0  0  0  0  0
    4.0231    1.3810    4.8768 O   0  0  0  0  0  0  0  0  0  0  0  0
    3.9269    2.6594    5.4992 C   0  0  0  0  0  0  0  0  0  0  0  0
    5.3090   -0.1988    3.7187 C   0  0  0  0  0  0  0  0  0  0  0  0
    6.4867   -0.6729    3.0968 C   0  0  0  0  0  0  0  0  0  0  0  0
    6.5029   -1.9030    2.4034 N   0  0  0  0  0  0  0  0  0  0  0  0
    5.2086   -2.2127    1.6407 C   0  0  0  0  0  0  0  0  0  0  0  0
    4.5443   -1.2745    0.6135 C   0  0  0  0  0  0  0  0  0  0  0  0
    5.2483   -0.7010   -0.6019 C   0  0  0  0  0  0  0  0  0  0  0  0
    4.6259    0.2274    0.4008 C   0  0  0  0  0  0  0  0  0  0  0  0
    7.5926   -2.7893    2.1035 C   0  0  0  0  0  0  0  0  0  0  0  0
    7.7181   -3.0287    0.7508 C   0  0  0  0  0  0  0  0  0  0  0  0
    8.1492   -4.2622    0.4079 C   0  0  0  0  0  0  0  0  0  0  0  0
    8.6194   -5.1614    1.3184 C   0  0  0  0  0  0  0  0  0  0  0  0
    8.5675   -6.2416    0.6508 N   0  0  0  0  0  0  0  0  0  0  0  0
    9.7265   -6.6958    0.4256 C   0  0  0  0  0  0  0  0  0  0  0  0
   10.5314   -7.0319    1.4706 C   0  0  0  0  0  0  0  0  0  0  0  0
   11.1587   -8.3600    0.9705 C   0  0  0  0  0  0  0  0  0  0  0  0
   12.4409   -8.9575    0.7557 C   0  0  0  0  0  0  0  0  0  0  0  0
   12.4861   -9.8628   -0.2656 N   0  0  0  0  0  0  0  0  0  0  0  0
   11.2387   -9.8595   -0.8028 N   0  0  0  0  0  0  0  0  0  0  0  0
   10.8662  -10.6098   -2.0437 C   0  0  0  0  0  0  0  0  0  0  0  0
   10.4098   -9.7462   -3.2708 C   0  0  0  0  0  0  0  0  0  0  0  0
    9.2340  -10.6306   -3.5020 N   0  0  0  0  0  0  0  0  0  0  0  0
    9.4838  -11.6314   -4.5775 C   0  0  0  0  0  0  0  0  0  0  0  0
    8.2699  -12.5409   -4.9041 C   0  0  0  0  0  0  0  0  0  0  0  0
    7.1557  -11.7929   -5.3837 O   0  0  0  0  0  0  0  0  0  0  0  0
    9.4114  -11.1757   -2.1357 C   0  0  0  0  0  0  0  0  0  0  0  0
   10.4191   -9.0963   -0.0132 C   0  0  0  0  0  0  0  0  0  0  0  0
   10.3049   -6.2077    2.6163 N   0  0  0  0  0  0  0  0  0  0  0  0
    9.2782   -4.9694    2.4875 C   0  0  0  0  0  0  0  0  0  0  0  0
    8.4904   -3.6302    2.9585 C   0  0  0  0  0  0  0  0  0  0  0  0
    7.5990    0.1764    3.1111 C   0  0  0  0  0  0  0  0  0  0  0  0
    9.4419    4.1223    3.5930 H   0  0  0  0  0  0  0  0  0  0  0  0
    8.4609    3.6910    5.0016 H   0  0  0  0  0  0  0  0  0  0  0  0
    7.6866    4.0949    3.4216 H   0  0  0  0  0  0  0  0  0  0  0  0
    6.3068    2.8634    4.7573 H   0  0  0  0  0  0  0  0  0  0  0  0
    2.9143    2.7731    5.8970 H   0  0  0  0  0  0  0  0  0  0  0  0
    4.0897    3.4641    4.7734 H   0  0  0  0  0  0  0  0  0  0  0  0
    4.6253    2.7403    6.3395 H   0  0  0  0  0  0  0  0  0  0  0  0
    4.4063   -0.8041    3.7328 H   0  0  0  0  0  0  0  0  0  0  0  0
    4.4403   -2.4508    2.3851 H   0  0  0  0  0  0  0  0  0  0  0  0
    5.3026   -3.1637    1.0977 H   0  0  0  0  0  0  0  0  0  0  0  0
    3.5482   -1.6783    0.4085 H   0  0  0  0  0  0  0  0  0  0  0  0
    4.7590   -0.7920   -1.5698 H   0  0  0  0  0  0  0  0  0  0  0  0
    6.3263   -0.6681   -0.6658 H   0  0  0  0  0  0  0  0  0  0  0  0
    3.7303    0.7524    0.0658 H   0  0  0  0  0  0  0  0  0  0  0  0
    5.2899    0.8542    0.9766 H   0  0  0  0  0  0  0  0  0  0  0  0
    7.2234   -2.4913   -0.0125 H   0  0  0  0  0  0  0  0  0  0  0  0
    8.0193   -4.5930   -0.6122 H   0  0  0  0  0  0  0  0  0  0  0  0
    9.9405   -6.8971   -0.5883 H   0  0  0  0  0  0  0  0  0  0  0  0
   13.3961   -8.7601    1.2415 H   0  0  0  0  0  0  0  0  0  0  0  0
   11.6477  -11.3178   -2.3460 H   0  0  0  0  0  0  0  0  0  0  0  0
   11.1181   -9.7034   -4.1098 H   0  0  0  0  0  0  0  0  0  0  0  0
   10.1021   -8.7151   -3.0607 H   0  0  0  0  0  0  0  0  0  0  0  0
   10.3487  -12.2681   -4.3606 H   0  0  0  0  0  0  0  0  0  0  0  0
    9.7032  -11.0838   -5.5054 H   0  0  0  0  0  0  0  0  0  0  0  0
    7.9476  -13.1261   -4.0382 H   0  0  0  0  0  0  0  0  0  0  0  0
    8.5364  -13.2499   -5.6987 H   0  0  0  0  0  0  0  0  0  0  0  0
    6.9939  -11.0965   -4.7222 H   0  0  0  0  0  0  0  0  0  0  0  0
    9.3245  -12.2644   -2.0581 H   0  0  0  0  0  0  0  0  0  0  0  0
    8.6728  -10.7459   -1.4506 H   0  0  0  0  0  0  0  0  0  0  0  0
    9.3920   -8.9741   -0.3188 H   0  0  0  0  0  0  0  0  0  0  0  0
    8.5857   -3.3402    4.0027 H   0  0  0  0  0  0  0  0  0  0  0  0
    8.5149   -0.1258    2.6118 H   0  0  0  0  0  0  0  0  0  0  0  0
  1  2  1  0  0  0  0
  1 38  1  0  0  0  0
  1 39  1  0  0  0  0
  1 40  1  0  0  0  0
  2  3  1  0  0  0  0
  3  4  1  0  0  0  0
  3 37  2  0  0  0  0
  4  5  2  0  0  0  0
  4 41  1  0  0  0  0
  5  6  1  0  0  0  0
  5  8  1  0  0  0  0
  6  7  1  0  0  0  0
  7 42  1  0  0  0  0
  7 43  1  0  0  0  0
  7 44  1  0  0  0  0
  8  9  2  0  0  0  0
  8 45  1  0  0  0  0
  9 10  1  0  0  0  0
  9 37  1  0  0  0  0
 10 11  1  0  0  0  0
 10 15  1  0  0  0  0
 11 12  1  0  0  0  0
 11 46  1  0  0  0  0
 11 47  1  0  0  0  0
 12 13  1  0  0  0  0
 12 14  1  0  0  0  0
 12 48  1  0  0  0  0
 13 14  1  0  0  0  0
 13 49  1  0  0  0  0
 13 50  1  0  0  0  0
 14 51  1  0  0  0  0
 14 52  1  0  0  0  0
 15 16  1  0  0  0  0
 15 36  2  0  0  0  0
 16 17  2  0  0  0  0
 16 53  1  0  0  0  0
 17 18  1  0  0  0  0
 17 54  1  0  0  0  0
 18 19  1  0  0  0  0
 18 35  2  0  0  0  0
 19 20  2  0  0  0  0
 20 21  1  0  0  0  0
 20 55  1  0  0  0  0
 21 22  1  0  0  0  0
 21 34  2  0  0  0  0
 22 23  1  0  0  0  0
 22 33  2  0  0  0  0
 23 24  2  0  0  0  0
 23 56  1  0  0  0  0
 24 25  1  0  0  0  0
 25 26  1  0  0  0  0
 25 33  1  0  0  0  0
 26 27  1  0  0  0  0
 26 32  1  0  0  0  0
 26 57  1  0  0  0  0
 27 28  1  0  0  0  0
 27 58  1  0  0  0  0
 27 59  1  0  0  0  0
 28 29  1  0  0  0  0
 28 32  1  0  0  0  0
 29 30  1  0  0  0  0
 29 60  1  0  0  0  0
 29 61  1  0  0  0  0
 30 31  1  0  0  0  0
 30 62  1  0  0  0  0
 30 63  1  0  0  0  0
 31 64  1  0  0  0  0
 32 65  1  0  0  0  0
 32 66  1  0  0  0  0
 33 67  1  0  0  0  0
 34 35  1  0  0  0  0
 35 36  1  0  0  0  0
 36 68  1  0  0  0  0
 37 69  1  0  0  0  0
M  END
$$$$
