CHEMBL1940847
 OpenBabel04072215363D

 33 35  0  0  0  0  0  0  0  0999 V2000
    4.5781    0.2598   -0.0152 C   0  0  0  0  0  0  0  0  0  0  0  0
    3.1075   -0.0354   -0.0036 C   0  0  0  0  0  0  0  0  0  0  0  0
    2.6350   -1.3479   -0.0054 C   0  0  0  0  0  0  0  0  0  0  0  0
    1.2580   -1.6021    0.0040 C   0  0  0  0  0  0  0  0  0  0  0  0
    0.3242   -0.5753    0.0113 C   0  0  0  0  0  0  0  0  0  0  0  0
   -0.9859   -0.8636    0.0127 N   0  0  0  0  0  0  0  0  0  0  0  0
   -1.8683    0.1677    0.0058 C   0  0  0  0  0  0  0  0  0  0  0  0
   -3.4993   -0.3944    0.0007 Cl  0  0  0  0  0  0  0  0  0  0  0  0
   -1.5279    1.5237    0.0164 C   0  0  0  0  0  0  0  0  0  0  0  0
   -2.5261    2.6200   -0.0242 C   0  0  0  0  0  0  0  0  0  0  0  0
   -2.3492    3.8317    0.5247 C   0  0  0  0  0  0  0  0  0  0  0  0
   -3.3973    4.9119    0.4565 C   0  0  0  0  0  0  0  0  0  0  0  0
   -4.2516    4.8696   -0.4178 O   0  0  0  0  0  0  0  0  0  0  0  0
   -3.2973    5.9721    1.4607 C   0  0  0  0  0  0  0  0  0  0  0  0
   -2.6811    5.5823    3.0271 S   0  0  0  0  0  0  0  0  0  0  0  0
   -2.8745    7.1742    3.5878 C   0  0  0  0  0  0  0  0  0  0  0  0
   -3.4246    7.9942    2.6318 C   0  0  0  0  0  0  0  0  0  0  0  0
   -3.6836    7.2948    1.4203 C   0  0  0  0  0  0  0  0  0  0  0  0
   -4.4817    8.2159   -0.0267 Br  0  0  0  0  0  0  0  0  0  0  0  0
   -0.1512    1.7891    0.0102 C   0  0  0  0  0  0  0  0  0  0  0  0
    0.7954    0.7493    0.0108 C   0  0  0  0  0  0  0  0  0  0  0  0
    2.1795    1.0106    0.0066 C   0  0  0  0  0  0  0  0  0  0  0  0
    5.1714   -0.6603   -0.0328 H   0  0  0  0  0  0  0  0  0  0  0  0
    4.8582    0.8229    0.8809 H   0  0  0  0  0  0  0  0  0  0  0  0
    4.8393    0.8437   -0.9038 H   0  0  0  0  0  0  0  0  0  0  0  0
    3.3277   -2.1858   -0.0163 H   0  0  0  0  0  0  0  0  0  0  0  0
    0.9072   -2.6317    0.0014 H   0  0  0  0  0  0  0  0  0  0  0  0
   -3.4684    2.4063   -0.5294 H   0  0  0  0  0  0  0  0  0  0  0  0
   -1.4470    4.0901    1.0665 H   0  0  0  0  0  0  0  0  0  0  0  0
   -2.5909    7.4253    4.5988 H   0  0  0  0  0  0  0  0  0  0  0  0
   -3.6445    9.0397    2.8118 H   0  0  0  0  0  0  0  0  0  0  0  0
    0.2185    2.8116   -0.0035 H   0  0  0  0  0  0  0  0  0  0  0  0
    2.5380    2.0384    0.0078 H   0  0  0  0  0  0  0  0  0  0  0  0
  1  2  1  0  0  0  0
  1 23  1  0  0  0  0
  1 24  1  0  0  0  0
  1 25  1  0  0  0  0
  2  3  1  0  0  0  0
  2 22  2  0  0  0  0
  3  4  2  0  0  0  0
  3 26  1  0  0  0  0
  4  5  1  0  0  0  0
  4 27  1  0  0  0  0
  5  6  1  0  0  0  0
  5 21  2  0  0  0  0
  6  7  2  0  0  0  0
  7  8  1  0  0  0  0
  7  9  1  0  0  0  0
  9 10  1  0  0  0  0
  9 20  2  0  0  0  0
 10 11  2  0  0  0  0
 10 28  1  0  0  0  0
 11 12  1  0  0  0  0
 11 29  1  0  0  0  0
 12 13  2  0  0  0  0
 12 14  1  0  0  0  0
 14 15  1  0  0  0  0
 14 18  2  0  0  0  0
 15 16  1  0  0  0  0
 16 17  2  0  0  0  0
 16 30  1  0  0  0  0
 17 18  1  0  0  0  0
 17 31  1  0  0  0  0
 18 19  1  0  0  0  0
 20 21  1  0  0  0  0
 20 32  1  0  0  0  0
 21 22  1  0  0  0  0
 22 33  1  0  0  0  0
M  END
$$$$
