CHEMBL447616
 OpenBabel04072215383D

 79 85  0  0  0  0  0  0  0  0999 V2000
    1.8743    1.6731    4.3577 C   0  0  0  0  0  0  0  0  0  0  0  0
    1.5260    0.9374    3.1453 N   0  0  0  0  0  0  0  0  0  0  0  0
    0.8332   -0.3197    3.4761 C   0  0  0  0  0  0  0  0  0  0  0  0
    0.3867   -1.0770    2.2044 C   0  0  0  0  0  0  0  0  0  0  0  0
   -0.5021   -0.3022    1.3096 N   0  0  0  0  0  0  0  0  0  0  0  0
   -1.8349   -0.0235    1.8745 C   0  0  0  0  0  0  0  0  0  0  0  0
   -2.6427   -1.2520    2.2355 C   0  0  0  0  0  0  0  0  0  0  0  0
   -2.5584   -1.7868    3.5258 C   0  0  0  0  0  0  0  0  0  0  0  0
   -3.2417   -2.9511    3.8599 C   0  0  0  0  0  0  0  0  0  0  0  0
   -4.0459   -3.6110    2.9184 C   0  0  0  0  0  0  0  0  0  0  0  0
   -4.7080   -4.8770    3.2502 C   0  0  0  0  0  0  0  0  0  0  0  0
   -5.9223   -5.3831    2.8250 C   0  0  0  0  0  0  0  0  0  0  0  0
   -6.2204   -6.6625    3.3830 C   0  0  0  0  0  0  0  0  0  0  0  0
   -7.3518   -7.3801    3.1502 N   0  0  0  0  0  0  0  0  0  0  0  0
   -7.4565   -8.5356    3.8337 C   0  0  0  0  0  0  0  0  0  0  0  0
   -6.5199   -9.0285    4.7246 C   0  0  0  0  0  0  0  0  0  0  0  0
   -5.3327   -8.3223    4.9073 C   0  0  0  0  0  0  0  0  0  0  0  0
   -4.3230   -8.6861    5.7659 O   0  0  0  0  0  0  0  0  0  0  0  0
   -3.9905  -10.0049    5.9241 C   0  0  0  0  0  0  0  0  0  0  0  0
   -4.1538  -10.9792    4.9435 C   0  0  0  0  0  0  0  0  0  0  0  0
   -3.8839  -12.3140    5.2408 C   0  0  0  0  0  0  0  0  0  0  0  0
   -3.3993  -12.6808    6.4985 C   0  0  0  0  0  0  0  0  0  0  0  0
   -3.1808  -14.0128    6.8816 N   0  0  0  0  0  0  0  0  0  0  0  0
   -3.3841  -15.1462    6.1267 C   0  0  0  0  0  0  0  0  0  0  0  0
   -3.8086  -15.1784    4.9734 O   0  0  0  0  0  0  0  0  0  0  0  0
   -3.0471  -16.3176    6.7792 N   0  0  0  0  0  0  0  0  0  0  0  0
   -3.0743  -17.5745    6.0760 C   0  0  0  0  0  0  0  0  0  0  0  0
   -2.4688  -18.5382    7.0701 C   0  0  0  0  0  0  0  0  0  0  0  0
   -2.8165  -17.9499    8.3409 N   0  0  0  0  0  0  0  0  0  0  0  0
   -2.9228  -18.6924    9.5313 C   0  0  0  0  0  0  0  0  0  0  0  0
   -3.7318  -18.2541   10.5857 C   0  0  0  0  0  0  0  0  0  0  0  0
   -3.9283  -19.0596   11.7112 C   0  0  0  0  0  0  0  0  0  0  0  0
   -3.2898  -20.2935   11.8101 C   0  0  0  0  0  0  0  0  0  0  0  0
   -2.4507  -20.7223   10.7857 C   0  0  0  0  0  0  0  0  0  0  0  0
   -2.2778  -19.9307    9.6493 C   0  0  0  0  0  0  0  0  0  0  0  0
   -3.0580  -16.5678    8.1720 C   0  0  0  0  0  0  0  0  0  0  0  0
   -3.1942  -15.7096    9.0361 O   0  0  0  0  0  0  0  0  0  0  0  0
   -3.1224  -11.6864    7.4388 C   0  0  0  0  0  0  0  0  0  0  0  0
   -3.4164  -10.3594    7.1438 C   0  0  0  0  0  0  0  0  0  0  0  0
   -3.1540   -9.4197    8.0647 F   0  0  0  0  0  0  0  0  0  0  0  0
   -5.2087   -7.1048    4.2283 C   0  0  0  0  0  0  0  0  0  0  0  0
   -3.9098   -5.9961    4.2757 S   0  0  0  0  0  0  0  0  0  0  0  0
   -4.1774   -3.0407    1.6436 C   0  0  0  0  0  0  0  0  0  0  0  0
   -3.4734   -1.8816    1.3017 C   0  0  0  0  0  0  0  0  0  0  0  0
    0.1958    0.9709    0.9987 C   0  0  0  0  0  0  0  0  0  0  0  0
    0.7009    1.7577    2.2390 C   0  0  0  0  0  0  0  0  0  0  0  0
    2.5006    1.0586    5.0143 H   0  0  0  0  0  0  0  0  0  0  0  0
    0.9891    1.9849    4.9240 H   0  0  0  0  0  0  0  0  0  0  0  0
    2.4581    2.5657    4.1091 H   0  0  0  0  0  0  0  0  0  0  0  0
   -0.0318   -0.1177    4.1181 H   0  0  0  0  0  0  0  0  0  0  0  0
    1.5070   -0.9711    4.0457 H   0  0  0  0  0  0  0  0  0  0  0  0
   -0.0590   -2.0401    2.4741 H   0  0  0  0  0  0  0  0  0  0  0  0
    1.2868   -1.3486    1.6337 H   0  0  0  0  0  0  0  0  0  0  0  0
   -2.4176    0.5376    1.1306 H   0  0  0  0  0  0  0  0  0  0  0  0
   -1.7883    0.6271    2.7557 H   0  0  0  0  0  0  0  0  0  0  0  0
   -1.9309   -1.3205    4.2801 H   0  0  0  0  0  0  0  0  0  0  0  0
   -3.1179   -3.3441    4.8665 H   0  0  0  0  0  0  0  0  0  0  0  0
   -6.5936   -4.8593    2.1583 H   0  0  0  0  0  0  0  0  0  0  0  0
   -8.3705   -9.0940    3.6411 H   0  0  0  0  0  0  0  0  0  0  0  0
   -6.7186   -9.9556    5.2510 H   0  0  0  0  0  0  0  0  0  0  0  0
   -4.5162  -10.7324    3.9499 H   0  0  0  0  0  0  0  0  0  0  0  0
   -4.0857  -13.0444    4.4644 H   0  0  0  0  0  0  0  0  0  0  0  0
   -2.9040  -14.1795    7.8471 H   0  0  0  0  0  0  0  0  0  0  0  0
   -2.5368  -17.5223    5.1248 H   0  0  0  0  0  0  0  0  0  0  0  0
   -4.1250  -17.8213    5.8760 H   0  0  0  0  0  0  0  0  0  0  0  0
   -1.3761  -18.5478    6.9882 H   0  0  0  0  0  0  0  0  0  0  0  0
   -2.8686  -19.5492    6.9460 H   0  0  0  0  0  0  0  0  0  0  0  0
   -4.2676  -17.3112   10.5297 H   0  0  0  0  0  0  0  0  0  0  0  0
   -4.5935  -18.7248   12.5031 H   0  0  0  0  0  0  0  0  0  0  0  0
   -3.4474  -20.9193   12.6837 H   0  0  0  0  0  0  0  0  0  0  0  0
   -1.9354  -21.6758   10.8668 H   0  0  0  0  0  0  0  0  0  0  0  0
   -1.6087  -20.2912    8.8719 H   0  0  0  0  0  0  0  0  0  0  0  0
   -2.6938  -11.9204    8.4083 H   0  0  0  0  0  0  0  0  0  0  0  0
   -4.8073   -3.5127    0.8934 H   0  0  0  0  0  0  0  0  0  0  0  0
   -3.5696   -1.4793    0.2959 H   0  0  0  0  0  0  0  0  0  0  0  0
   -0.4511    1.6157    0.3925 H   0  0  0  0  0  0  0  0  0  0  0  0
    1.0580    0.7360    0.3605 H   0  0  0  0  0  0  0  0  0  0  0  0
   -0.1600    2.1743    2.7765 H   0  0  0  0  0  0  0  0  0  0  0  0
    1.2961    2.6078    1.8829 H   0  0  0  0  0  0  0  0  0  0  0  0
  1  2  1  0  0  0  0
  1 47  1  0  0  0  0
  1 48  1  0  0  0  0
  1 49  1  0  0  0  0
  2  3  1  0  0  0  0
  2 46  1  0  0  0  0
  3  4  1  0  0  0  0
  3 50  1  0  0  0  0
  3 51  1  0  0  0  0
  4  5  1  0  0  0  0
  4 52  1  0  0  0  0
  4 53  1  0  0  0  0
  5  6  1  0  0  0  0
  5 45  1  0  0  0  0
  6  7  1  0  0  0  0
  6 54  1  0  0  0  0
  6 55  1  0  0  0  0
  7  8  1  0  0  0  0
  7 44  2  0  0  0  0
  8  9  2  0  0  0  0
  8 56  1  0  0  0  0
  9 10  1  0  0  0  0
  9 57  1  0  0  0  0
 10 11  1  0  0  0  0
 10 43  2  0  0  0  0
 11 12  2  0  0  0  0
 11 42  1  0  0  0  0
 12 13  1  0  0  0  0
 12 58  1  0  0  0  0
 13 14  1  0  0  0  0
 13 41  2  0  0  0  0
 14 15  2  0  0  0  0
 15 16  1  0  0  0  0
 15 59  1  0  0  0  0
 16 17  2  0  0  0  0
 16 60  1  0  0  0  0
 17 18  1  0  0  0  0
 17 41  1  0  0  0  0
 18 19  1  0  0  0  0
 19 20  1  0  0  0  0
 19 39  2  0  0  0  0
 20 21  2  0  0  0  0
 20 61  1  0  0  0  0
 21 22  1  0  0  0  0
 21 62  1  0  0  0  0
 22 23  1  0  0  0  0
 22 38  2  0  0  0  0
 23 24  1  0  0  0  0
 23 63  1  0  0  0  0
 24 25  2  0  0  0  0
 24 26  1  0  0  0  0
 26 27  1  0  0  0  0
 26 36  1  0  0  0  0
 27 28  1  0  0  0  0
 27 64  1  0  0  0  0
 27 65  1  0  0  0  0
 28 29  1  0  0  0  0
 28 66  1  0  0  0  0
 28 67  1  0  0  0  0
 29 30  1  0  0  0  0
 29 36  1  0  0  0  0
 30 31  1  0  0  0  0
 30 35  2  0  0  0  0
 31 32  2  0  0  0  0
 31 68  1  0  0  0  0
 32 33  1  0  0  0  0
 32 69  1  0  0  0  0
 33 34  2  0  0  0  0
 33 70  1  0  0  0  0
 34 35  1  0  0  0  0
 34 71  1  0  0  0  0
 35 72  1  0  0  0  0
 36 37  2  0  0  0  0
 38 39  1  0  0  0  0
 38 73  1  0  0  0  0
 39 40  1  0  0  0  0
 41 42  1  0  0  0  0
 43 44  1  0  0  0  0
 43 74  1  0  0  0  0
 44 75  1  0  0  0  0
 45 46  1  0  0  0  0
 45 76  1  0  0  0  0
 45 77  1  0  0  0  0
 46 78  1  0  0  0  0
 46 79  1  0  0  0  0
M  END
$$$$
