CHEMBL3908336
 OpenBabel04072215373D

 52 55  0  0  0  0  0  0  0  0999 V2000
    4.8291   -0.7918    2.1801 O   0  0  0  0  0  0  0  0  0  0  0  0
    4.2266   -0.5583    1.1359 C   0  0  0  0  0  0  0  0  0  0  0  0
    2.9654   -1.0368    0.8518 N   0  0  0  0  0  0  0  0  0  0  0  0
    2.2293   -1.8887    1.7149 C   0  0  0  0  0  0  0  0  0  0  0  0
    2.5417   -2.0691    3.0663 C   0  0  0  0  0  0  0  0  0  0  0  0
    1.8195   -2.9590    3.8619 C   0  0  0  0  0  0  0  0  0  0  0  0
    0.7525   -3.6680    3.3216 C   0  0  0  0  0  0  0  0  0  0  0  0
    0.1137   -4.5329    4.1818 O   0  0  0  0  0  0  0  0  0  0  0  0
   -1.2501   -4.6901    4.0838 C   0  0  0  0  0  0  0  0  0  0  0  0
   -2.1127   -3.6824    3.6691 C   0  0  0  0  0  0  0  0  0  0  0  0
   -3.4493   -3.9879    3.5637 C   0  0  0  0  0  0  0  0  0  0  0  0
   -3.9560   -5.1859    3.8977 N   0  0  0  0  0  0  0  0  0  0  0  0
   -3.1339   -6.1413    4.3640 C   0  0  0  0  0  0  0  0  0  0  0  0
   -3.6630   -7.3883    4.7410 N   0  0  0  0  0  0  0  0  0  0  0  0
   -4.9948   -7.7123    4.6494 C   0  0  0  0  0  0  0  0  0  0  0  0
   -5.9035   -7.0069    4.2327 O   0  0  0  0  0  0  0  0  0  0  0  0
   -5.3889   -9.0808    5.0860 C   0  0  0  0  0  0  0  0  0  0  0  0
   -4.5218  -10.0995    5.7709 C   0  0  0  0  0  0  0  0  0  0  0  0
   -4.8679  -10.2733    4.3194 C   0  0  0  0  0  0  0  0  0  0  0  0
   -1.7652   -5.9282    4.4749 C   0  0  0  0  0  0  0  0  0  0  0  0
    0.4312   -3.5131    1.9710 C   0  0  0  0  0  0  0  0  0  0  0  0
    1.1536   -2.6120    1.1892 C   0  0  0  0  0  0  0  0  0  0  0  0
    0.8164   -2.4581   -0.1018 F   0  0  0  0  0  0  0  0  0  0  0  0
    4.7726    0.1849    0.1103 N   0  0  0  0  0  0  0  0  0  0  0  0
    6.1420    0.5494    0.0534 C   0  0  0  0  0  0  0  0  0  0  0  0
    7.1285   -0.1391    0.7716 C   0  0  0  0  0  0  0  0  0  0  0  0
    8.4874    0.1875    0.6593 C   0  0  0  0  0  0  0  0  0  0  0  0
    9.5187   -0.6093    1.4232 C   0  0  0  0  0  0  0  0  0  0  0  0
    8.9880   -1.5820    2.2160 F   0  0  0  0  0  0  0  0  0  0  0  0
   10.3904   -1.2462    0.5931 F   0  0  0  0  0  0  0  0  0  0  0  0
   10.2788    0.1663    2.2433 F   0  0  0  0  0  0  0  0  0  0  0  0
    8.8589    1.2353   -0.1934 C   0  0  0  0  0  0  0  0  0  0  0  0
    7.8851    1.9408   -0.9075 C   0  0  0  0  0  0  0  0  0  0  0  0
    6.5404    1.5912   -0.7840 C   0  0  0  0  0  0  0  0  0  0  0  0
    5.6203    2.2782   -1.4789 F   0  0  0  0  0  0  0  0  0  0  0  0
    2.6488   -0.9946   -0.1096 H   0  0  0  0  0  0  0  0  0  0  0  0
    3.3475   -1.5283    3.5506 H   0  0  0  0  0  0  0  0  0  0  0  0
    2.1033   -3.0897    4.9033 H   0  0  0  0  0  0  0  0  0  0  0  0
   -1.7706   -2.6901    3.4050 H   0  0  0  0  0  0  0  0  0  0  0  0
   -4.1717   -3.2669    3.1949 H   0  0  0  0  0  0  0  0  0  0  0  0
   -3.0184   -8.0811    5.0792 H   0  0  0  0  0  0  0  0  0  0  0  0
   -6.4428   -9.1151    5.3606 H   0  0  0  0  0  0  0  0  0  0  0  0
   -5.0101  -10.7577    6.4831 H   0  0  0  0  0  0  0  0  0  0  0  0
   -3.5001   -9.8713    6.0365 H   0  0  0  0  0  0  0  0  0  0  0  0
   -5.5918  -11.0300    4.0399 H   0  0  0  0  0  0  0  0  0  0  0  0
   -4.0890  -10.1161    3.5816 H   0  0  0  0  0  0  0  0  0  0  0  0
   -1.0964   -6.6985    4.8455 H   0  0  0  0  0  0  0  0  0  0  0  0
   -0.3737   -4.0765    1.5110 H   0  0  0  0  0  0  0  0  0  0  0  0
    4.1430    0.6815   -0.5070 H   0  0  0  0  0  0  0  0  0  0  0  0
    6.8679   -0.9726    1.4202 H   0  0  0  0  0  0  0  0  0  0  0  0
    9.9098    1.4959   -0.3098 H   0  0  0  0  0  0  0  0  0  0  0  0
    8.1690    2.7557   -1.5666 H   0  0  0  0  0  0  0  0  0  0  0  0
  1  2  2  0  0  0  0
  2  3  1  0  0  0  0
  2 24  1  0  0  0  0
  3  4  1  0  0  0  0
  3 36  1  0  0  0  0
  4  5  1  0  0  0  0
  4 22  2  0  0  0  0
  5  6  2  0  0  0  0
  5 37  1  0  0  0  0
  6  7  1  0  0  0  0
  6 38  1  0  0  0  0
  7  8  1  0  0  0  0
  7 21  2  0  0  0  0
  8  9  1  0  0  0  0
  9 10  1  0  0  0  0
  9 20  2  0  0  0  0
 10 11  2  0  0  0  0
 10 39  1  0  0  0  0
 11 12  1  0  0  0  0
 11 40  1  0  0  0  0
 12 13  2  0  0  0  0
 13 14  1  0  0  0  0
 13 20  1  0  0  0  0
 14 15  1  0  0  0  0
 14 41  1  0  0  0  0
 15 16  2  0  0  0  0
 15 17  1  0  0  0  0
 17 18  1  0  0  0  0
 17 19  1  0  0  0  0
 17 42  1  0  0  0  0
 18 19  1  0  0  0  0
 18 43  1  0  0  0  0
 18 44  1  0  0  0  0
 19 45  1  0  0  0  0
 19 46  1  0  0  0  0
 20 47  1  0  0  0  0
 21 22  1  0  0  0  0
 21 48  1  0  0  0  0
 22 23  1  0  0  0  0
 24 25  1  0  0  0  0
 24 49  1  0  0  0  0
 25 26  1  0  0  0  0
 25 34  2  0  0  0  0
 26 27  2  0  0  0  0
 26 50  1  0  0  0  0
 27 28  1  0  0  0  0
 27 32  1  0  0  0  0
 28 29  1  0  0  0  0
 28 30  1  0  0  0  0
 28 31  1  0  0  0  0
 32 33  2  0  0  0  0
 32 51  1  0  0  0  0
 33 34  1  0  0  0  0
 33 52  1  0  0  0  0
 34 35  1  0  0  0  0
M  END
$$$$
