CHEMBL3217774
 OpenBabel04072215363D

 54 56  0  0  0  0  0  0  0  0999 V2000
    0.6601   -4.3634    1.8006 C   0  0  0  0  0  0  0  0  0  0  0  0
    2.0630   -4.3583    1.8890 O   0  0  0  0  0  0  0  0  0  0  0  0
    2.5831   -3.0375    1.8848 C   0  0  0  0  0  0  0  0  0  0  0  0
    4.0937   -3.1996    2.0524 C   0  0  0  0  0  0  0  0  0  0  0  0
    4.8646   -2.0314    2.0935 O   0  0  0  0  0  0  0  0  0  0  0  0
    6.2339   -2.0971    2.2391 C   0  0  0  0  0  0  0  0  0  0  0  0
    6.8667   -3.3626    2.3987 C   0  0  0  0  0  0  0  0  0  0  0  0
    8.2409   -3.4952    2.5687 C   0  0  0  0  0  0  0  0  0  0  0  0
    8.7686   -4.7329    2.7591 N   0  0  0  0  0  0  0  0  0  0  0  0
   10.0955   -4.9007    2.9693 C   0  0  0  0  0  0  0  0  0  0  0  0
   10.9172   -3.8219    2.9868 N   0  0  0  0  0  0  0  0  0  0  0  0
   10.4526   -2.5599    2.7777 C   0  0  0  0  0  0  0  0  0  0  0  0
   11.3828   -1.4780    2.7676 N   0  0  0  0  0  0  0  0  0  0  0  0
   12.5608   -1.4501    3.5742 C   0  0  0  0  0  0  0  0  0  0  0  0
   12.6557   -2.1999    4.7646 C   0  0  0  0  0  0  0  0  0  0  0  0
   13.7817   -2.0935    5.5794 C   0  0  0  0  0  0  0  0  0  0  0  0
   14.8304   -1.2511    5.2173 C   0  0  0  0  0  0  0  0  0  0  0  0
   14.7710   -0.5112    4.0287 C   0  0  0  0  0  0  0  0  0  0  0  0
   15.9899    0.4130    3.6242 B   0  0  0  0  0  0  0  0  0  0  0  0
   16.1008    0.9806    2.2766 O   0  0  0  0  0  0  0  0  0  0  0  0
   17.0858    0.6191    4.5732 O   0  0  0  0  0  0  0  0  0  0  0  0
   13.6263   -0.6096    3.2136 C   0  0  0  0  0  0  0  0  0  0  0  0
    9.0689   -2.3654    2.5600 C   0  0  0  0  0  0  0  0  0  0  0  0
    8.4794   -1.1032    2.3887 C   0  0  0  0  0  0  0  0  0  0  0  0
    7.0858   -0.9403    2.2556 C   0  0  0  0  0  0  0  0  0  0  0  0
    6.6882    0.3538    2.1395 O   0  0  0  0  0  0  0  0  0  0  0  0
    5.4774    0.9673    2.3721 C   0  0  0  0  0  0  0  0  0  0  0  0
    5.1307    1.0179    3.8613 C   0  0  0  0  0  0  0  0  0  0  0  0
    3.9505    1.7834    3.9871 O   0  0  0  0  0  0  0  0  0  0  0  0
    3.5489    1.8486    5.3336 C   0  0  0  0  0  0  0  0  0  0  0  0
    0.3310   -5.4255    1.7461 H   0  0  0  0  0  0  0  0  0  0  0  0
    0.3073   -3.8751    0.8681 H   0  0  0  0  0  0  0  0  0  0  0  0
    0.1963   -3.9323    2.7133 H   0  0  0  0  0  0  0  0  0  0  0  0
    2.1786   -2.4487    2.7378 H   0  0  0  0  0  0  0  0  0  0  0  0
    2.3679   -2.5370    0.9147 H   0  0  0  0  0  0  0  0  0  0  0  0
    4.4365   -3.8266    1.1988 H   0  0  0  0  0  0  0  0  0  0  0  0
    4.2369   -3.7522    3.0076 H   0  0  0  0  0  0  0  0  0  0  0  0
    6.3064   -4.2849    2.4063 H   0  0  0  0  0  0  0  0  0  0  0  0
   10.4956   -5.8885    3.1251 H   0  0  0  0  0  0  0  0  0  0  0  0
   11.2003   -0.6648    2.1616 H   0  0  0  0  0  0  0  0  0  0  0  0
   11.8479   -2.8394    5.0930 H   0  0  0  0  0  0  0  0  0  0  0  0
   13.8358   -2.6580    6.5012 H   0  0  0  0  0  0  0  0  0  0  0  0
   15.6906   -1.1908    5.8727 H   0  0  0  0  0  0  0  0  0  0  0  0
   15.2352    1.4149    2.0772 H   0  0  0  0  0  0  0  0  0  0  0  0
   17.5463   -0.2556    4.6375 H   0  0  0  0  0  0  0  0  0  0  0  0
   13.5470   -0.0391    2.2993 H   0  0  0  0  0  0  0  0  0  0  0  0
    9.0861   -0.2055    2.3962 H   0  0  0  0  0  0  0  0  0  0  0  0
    4.6703    0.5029    1.7745 H   0  0  0  0  0  0  0  0  0  0  0  0
    5.5895    2.0244    2.0412 H   0  0  0  0  0  0  0  0  0  0  0  0
    5.9726    1.5056    4.4110 H   0  0  0  0  0  0  0  0  0  0  0  0
    4.9841   -0.0208    4.2322 H   0  0  0  0  0  0  0  0  0  0  0  0
    2.5919    2.4103    5.3707 H   0  0  0  0  0  0  0  0  0  0  0  0
    4.2818    2.4120    5.9525 H   0  0  0  0  0  0  0  0  0  0  0  0
    3.3438    0.8367    5.7450 H   0  0  0  0  0  0  0  0  0  0  0  0
  1  2  1  0  0  0  0
  1 31  1  0  0  0  0
  1 32  1  0  0  0  0
  1 33  1  0  0  0  0
  2  3  1  0  0  0  0
  3  4  1  0  0  0  0
  3 34  1  0  0  0  0
  3 35  1  0  0  0  0
  4  5  1  0  0  0  0
  4 36  1  0  0  0  0
  4 37  1  0  0  0  0
  5  6  1  0  0  0  0
  6  7  1  0  0  0  0
  6 25  2  0  0  0  0
  7  8  2  0  0  0  0
  7 38  1  0  0  0  0
  8  9  1  0  0  0  0
  8 23  1  0  0  0  0
  9 10  2  0  0  0  0
 10 11  1  0  0  0  0
 10 39  1  0  0  0  0
 11 12  2  0  0  0  0
 12 13  1  0  0  0  0
 12 23  1  0  0  0  0
 13 14  1  0  0  0  0
 13 40  1  0  0  0  0
 14 15  1  0  0  0  0
 14 22  2  0  0  0  0
 15 16  2  0  0  0  0
 15 41  1  0  0  0  0
 16 17  1  0  0  0  0
 16 42  1  0  0  0  0
 17 18  2  0  0  0  0
 17 43  1  0  0  0  0
 18 19  1  0  0  0  0
 18 22  1  0  0  0  0
 19 20  1  0  0  0  0
 19 21  1  0  0  0  0
 20 44  1  0  0  0  0
 21 45  1  0  0  0  0
 22 46  1  0  0  0  0
 23 24  2  0  0  0  0
 24 25  1  0  0  0  0
 24 47  1  0  0  0  0
 25 26  1  0  0  0  0
 26 27  1  0  0  0  0
 27 28  1  0  0  0  0
 27 48  1  0  0  0  0
 27 49  1  0  0  0  0
 28 29  1  0  0  0  0
 28 50  1  0  0  0  0
 28 51  1  0  0  0  0
 29 30  1  0  0  0  0
 30 52  1  0  0  0  0
 30 53  1  0  0  0  0
 30 54  1  0  0  0  0
M  END
$$$$
