CHEMBL3979013
 OpenBabel04072215373D

 63 66  0  0  0  0  0  0  0  0999 V2000
    0.8754   -2.9988    2.8605 C   0  0  0  0  0  0  0  0  0  0  0  0
    2.2601   -2.9565    3.2006 O   0  0  0  0  0  0  0  0  0  0  0  0
    3.1162   -2.3632    2.2924 C   0  0  0  0  0  0  0  0  0  0  0  0
    2.7259   -1.9035    1.0352 C   0  0  0  0  0  0  0  0  0  0  0  0
    3.6511   -1.2626    0.2146 C   0  0  0  0  0  0  0  0  0  0  0  0
    3.3830   -0.7304   -1.0195 O   0  0  0  0  0  0  0  0  0  0  0  0
    2.0714   -0.9193   -1.5409 C   0  0  0  0  0  0  0  0  0  0  0  0
    4.9742   -1.0923    0.6545 C   0  0  0  0  0  0  0  0  0  0  0  0
    5.4185   -1.5460    1.9080 C   0  0  0  0  0  0  0  0  0  0  0  0
    6.6902   -1.1959    2.4444 N   0  0  0  0  0  0  0  0  0  0  0  0
    7.2097    0.1774    2.0721 C   0  0  0  0  0  0  0  0  0  0  0  0
    6.3149    1.4053    2.3382 C   0  0  0  0  0  0  0  0  0  0  0  0
    6.0900    1.8724    3.7763 C   0  0  0  0  0  0  0  0  0  0  0  0
    7.3105    2.2450    4.4859 N   0  0  0  0  0  0  0  0  0  0  0  0
    7.8480   -2.0398    2.6912 C   0  0  0  0  0  0  0  0  0  0  0  0
    8.6226   -1.6362    3.7756 C   0  0  0  0  0  0  0  0  0  0  0  0
    9.9636   -1.9658    3.8463 C   0  0  0  0  0  0  0  0  0  0  0  0
   10.5440   -2.8317    2.9534 C   0  0  0  0  0  0  0  0  0  0  0  0
   11.8767   -2.9104    3.0570 N   0  0  0  0  0  0  0  0  0  0  0  0
   12.4769   -3.9002    2.3851 C   0  0  0  0  0  0  0  0  0  0  0  0
   11.7584   -4.8522    1.6912 C   0  0  0  0  0  0  0  0  0  0  0  0
   12.4237   -6.1575    1.5637 C   0  0  0  0  0  0  0  0  0  0  0  0
   12.9606   -6.8989    0.4856 C   0  0  0  0  0  0  0  0  0  0  0  0
   13.5916   -8.0210    0.8759 N   0  0  0  0  0  0  0  0  0  0  0  0
   13.4700   -8.0106    2.2187 N   0  0  0  0  0  0  0  0  0  0  0  0
   13.6585   -9.2252    3.0170 C   0  0  0  0  0  0  0  0  0  0  0  0
   12.4795  -10.1738    2.7894 C   0  0  0  0  0  0  0  0  0  0  0  0
   14.9834   -9.9642    2.8065 C   0  0  0  0  0  0  0  0  0  0  0  0
   12.9080   -6.8449    2.6729 C   0  0  0  0  0  0  0  0  0  0  0  0
   10.4081   -4.6758    1.4460 N   0  0  0  0  0  0  0  0  0  0  0  0
    9.7559   -3.5794    2.0503 C   0  0  0  0  0  0  0  0  0  0  0  0
    8.3910   -3.0790    1.8907 C   0  0  0  0  0  0  0  0  0  0  0  0
    4.4602   -2.2049    2.7108 C   0  0  0  0  0  0  0  0  0  0  0  0
    0.3206   -3.3790    3.7260 H   0  0  0  0  0  0  0  0  0  0  0  0
    0.6989   -3.6897    2.0280 H   0  0  0  0  0  0  0  0  0  0  0  0
    0.4702   -2.0051    2.6322 H   0  0  0  0  0  0  0  0  0  0  0  0
    1.7045   -2.0289    0.7012 H   0  0  0  0  0  0  0  0  0  0  0  0
    2.0437   -0.4848   -2.5448 H   0  0  0  0  0  0  0  0  0  0  0  0
    1.3236   -0.3978   -0.9332 H   0  0  0  0  0  0  0  0  0  0  0  0
    1.8312   -1.9838   -1.6336 H   0  0  0  0  0  0  0  0  0  0  0  0
    5.6499   -0.5559   -0.0047 H   0  0  0  0  0  0  0  0  0  0  0  0
    7.4764    0.1608    1.0084 H   0  0  0  0  0  0  0  0  0  0  0  0
    8.1553    0.3981    2.5823 H   0  0  0  0  0  0  0  0  0  0  0  0
    5.3394    1.2993    1.8547 H   0  0  0  0  0  0  0  0  0  0  0  0
    6.8021    2.2443    1.8120 H   0  0  0  0  0  0  0  0  0  0  0  0
    5.5258    1.1350    4.3528 H   0  0  0  0  0  0  0  0  0  0  0  0
    5.4746    2.7814    3.7326 H   0  0  0  0  0  0  0  0  0  0  0  0
    7.8189    1.3975    4.7483 H   0  0  0  0  0  0  0  0  0  0  0  0
    7.0649    2.6907    5.3704 H   0  0  0  0  0  0  0  0  0  0  0  0
    8.2207   -0.9404    4.5026 H   0  0  0  0  0  0  0  0  0  0  0  0
   10.5855   -1.5015    4.6057 H   0  0  0  0  0  0  0  0  0  0  0  0
   13.5508   -3.9698    2.5235 H   0  0  0  0  0  0  0  0  0  0  0  0
   12.9384   -6.6703   -0.5724 H   0  0  0  0  0  0  0  0  0  0  0  0
   13.6359   -8.9048    4.0676 H   0  0  0  0  0  0  0  0  0  0  0  0
   12.3899  -10.4500    1.7331 H   0  0  0  0  0  0  0  0  0  0  0  0
   11.5400   -9.6974    3.0898 H   0  0  0  0  0  0  0  0  0  0  0  0
   12.5900  -11.0937    3.3726 H   0  0  0  0  0  0  0  0  0  0  0  0
   15.1413  -10.2443    1.7609 H   0  0  0  0  0  0  0  0  0  0  0  0
   14.9999  -10.8888    3.4005 H   0  0  0  0  0  0  0  0  0  0  0  0
   15.8348   -9.3587    3.1333 H   0  0  0  0  0  0  0  0  0  0  0  0
   12.8428   -6.6367    3.7322 H   0  0  0  0  0  0  0  0  0  0  0  0
    7.7945   -3.5300    1.0996 H   0  0  0  0  0  0  0  0  0  0  0  0
    4.7313   -2.5340    3.7098 H   0  0  0  0  0  0  0  0  0  0  0  0
  1  2  1  0  0  0  0
  1 34  1  0  0  0  0
  1 35  1  0  0  0  0
  1 36  1  0  0  0  0
  2  3  1  0  0  0  0
  3  4  1  0  0  0  0
  3 33  2  0  0  0  0
  4  5  2  0  0  0  0
  4 37  1  0  0  0  0
  5  6  1  0  0  0  0
  5  8  1  0  0  0  0
  6  7  1  0  0  0  0
  7 38  1  0  0  0  0
  7 39  1  0  0  0  0
  7 40  1  0  0  0  0
  8  9  2  0  0  0  0
  8 41  1  0  0  0  0
  9 10  1  0  0  0  0
  9 33  1  0  0  0  0
 10 11  1  0  0  0  0
 10 15  1  0  0  0  0
 11 12  1  0  0  0  0
 11 42  1  0  0  0  0
 11 43  1  0  0  0  0
 12 13  1  0  0  0  0
 12 44  1  0  0  0  0
 12 45  1  0  0  0  0
 13 14  1  0  0  0  0
 13 46  1  0  0  0  0
 13 47  1  0  0  0  0
 14 48  1  0  0  0  0
 14 49  1  0  0  0  0
 15 16  1  0  0  0  0
 15 32  2  0  0  0  0
 16 17  2  0  0  0  0
 16 50  1  0  0  0  0
 17 18  1  0  0  0  0
 17 51  1  0  0  0  0
 18 19  1  0  0  0  0
 18 31  2  0  0  0  0
 19 20  2  0  0  0  0
 20 21  1  0  0  0  0
 20 52  1  0  0  0  0
 21 22  1  0  0  0  0
 21 30  2  0  0  0  0
 22 23  1  0  0  0  0
 22 29  2  0  0  0  0
 23 24  2  0  0  0  0
 23 53  1  0  0  0  0
 24 25  1  0  0  0  0
 25 26  1  0  0  0  0
 25 29  1  0  0  0  0
 26 27  1  0  0  0  0
 26 28  1  0  0  0  0
 26 54  1  0  0  0  0
 27 55  1  0  0  0  0
 27 56  1  0  0  0  0
 27 57  1  0  0  0  0
 28 58  1  0  0  0  0
 28 59  1  0  0  0  0
 28 60  1  0  0  0  0
 29 61  1  0  0  0  0
 30 31  1  0  0  0  0
 31 32  1  0  0  0  0
 32 62  1  0  0  0  0
 33 63  1  0  0  0  0
M  END
$$$$
