CHEMBL297156
 OpenBabel04072215363D

 45 48  0  0  0  0  0  0  0  0999 V2000
   -2.5821   -5.6662   -3.4653 C   0  0  0  0  0  0  0  0  0  0  0  0
   -2.5828   -4.7569   -2.2719 C   0  0  0  0  0  0  0  0  0  0  0  0
   -3.7615   -4.2314   -1.7453 C   0  0  0  0  0  0  0  0  0  0  0  0
   -3.7287   -3.3908   -0.6252 C   0  0  0  0  0  0  0  0  0  0  0  0
   -4.9870   -2.8228   -0.0476 C   0  0  0  0  0  0  0  0  0  0  0  0
   -2.4926   -3.1053   -0.0250 C   0  0  0  0  0  0  0  0  0  0  0  0
   -1.2985   -3.6694   -0.4969 C   0  0  0  0  0  0  0  0  0  0  0  0
   -0.1007   -3.3947    0.2031 N   0  0  0  0  0  0  0  0  0  0  0  0
    1.1164   -4.1166    0.1775 C   0  0  0  0  0  0  0  0  0  0  0  0
    2.0111   -3.9199    1.2144 C   0  0  0  0  0  0  0  0  0  0  0  0
    3.2206   -4.5811    1.1225 C   0  0  0  0  0  0  0  0  0  0  0  0
    4.2227   -4.3169    2.0922 N   0  0  0  0  0  0  0  0  0  0  0  0
    3.9968   -4.0762    3.4322 C   0  0  0  0  0  0  0  0  0  0  0  0
    5.2365   -4.0152    4.0122 C   0  0  0  0  0  0  0  0  0  0  0  0
    6.2157   -4.1305    3.0689 N   0  0  0  0  0  0  0  0  0  0  0  0
    5.6037   -4.2477    1.8961 C   0  0  0  0  0  0  0  0  0  0  0  0
    6.3158   -4.2151    0.5996 C   0  0  0  0  0  0  0  0  0  0  0  0
    7.6296   -4.6976    0.5233 C   0  0  0  0  0  0  0  0  0  0  0  0
    8.3273   -4.6952   -0.6896 C   0  0  0  0  0  0  0  0  0  0  0  0
    7.7189   -4.2207   -1.8482 C   0  0  0  0  0  0  0  0  0  0  0  0
    6.4314   -3.7040   -1.7868 C   0  0  0  0  0  0  0  0  0  0  0  0
    5.7540   -3.6674   -0.5651 C   0  0  0  0  0  0  0  0  0  0  0  0
    3.5297   -5.4087    0.1082 N   0  0  0  0  0  0  0  0  0  0  0  0
    2.6071   -5.5338   -0.8454 C   0  0  0  0  0  0  0  0  0  0  0  0
    1.4261   -4.9148   -0.8569 N   0  0  0  0  0  0  0  0  0  0  0  0
   -1.3620   -4.4480   -1.6549 C   0  0  0  0  0  0  0  0  0  0  0  0
   -3.5970   -5.8426   -3.8335 H   0  0  0  0  0  0  0  0  0  0  0  0
   -2.1462   -6.6345   -3.1965 H   0  0  0  0  0  0  0  0  0  0  0  0
   -1.9962   -5.2229   -4.2763 H   0  0  0  0  0  0  0  0  0  0  0  0
   -4.7154   -4.4771   -2.2091 H   0  0  0  0  0  0  0  0  0  0  0  0
   -5.8658   -3.1231   -0.6270 H   0  0  0  0  0  0  0  0  0  0  0  0
   -4.9413   -1.7296   -0.0446 H   0  0  0  0  0  0  0  0  0  0  0  0
   -5.1215   -3.1818    0.9777 H   0  0  0  0  0  0  0  0  0  0  0  0
   -2.4764   -2.4510    0.8446 H   0  0  0  0  0  0  0  0  0  0  0  0
   -0.2948   -3.0089    1.1178 H   0  0  0  0  0  0  0  0  0  0  0  0
    1.7878   -3.2297    2.0165 H   0  0  0  0  0  0  0  0  0  0  0  0
    3.0069   -4.0588    3.8662 H   0  0  0  0  0  0  0  0  0  0  0  0
    5.4760   -3.8975    5.0615 H   0  0  0  0  0  0  0  0  0  0  0  0
    8.1181   -5.0769    1.4189 H   0  0  0  0  0  0  0  0  0  0  0  0
    9.3470   -5.0706   -0.7250 H   0  0  0  0  0  0  0  0  0  0  0  0
    8.2523   -4.2427   -2.7948 H   0  0  0  0  0  0  0  0  0  0  0  0
    5.9459   -3.3272   -2.6831 H   0  0  0  0  0  0  0  0  0  0  0  0
    4.7665   -3.2160   -0.5557 H   0  0  0  0  0  0  0  0  0  0  0  0
    2.8429   -6.1717   -1.6895 H   0  0  0  0  0  0  0  0  0  0  0  0
   -0.4598   -4.8519   -2.1011 H   0  0  0  0  0  0  0  0  0  0  0  0
  1  2  1  0  0  0  0
  1 27  1  0  0  0  0
  1 28  1  0  0  0  0
  1 29  1  0  0  0  0
  2  3  1  0  0  0  0
  2 26  2  0  0  0  0
  3  4  2  0  0  0  0
  3 30  1  0  0  0  0
  4  5  1  0  0  0  0
  4  6  1  0  0  0  0
  5 31  1  0  0  0  0
  5 32  1  0  0  0  0
  5 33  1  0  0  0  0
  6  7  2  0  0  0  0
  6 34  1  0  0  0  0
  7  8  1  0  0  0  0
  7 26  1  0  0  0  0
  8  9  1  0  0  0  0
  8 35  1  0  0  0  0
  9 10  1  0  0  0  0
  9 25  2  0  0  0  0
 10 11  2  0  0  0  0
 10 36  1  0  0  0  0
 11 12  1  0  0  0  0
 11 23  1  0  0  0  0
 12 13  1  0  0  0  0
 12 16  1  0  0  0  0
 13 14  2  0  0  0  0
 13 37  1  0  0  0  0
 14 15  1  0  0  0  0
 14 38  1  0  0  0  0
 15 16  2  0  0  0  0
 16 17  1  0  0  0  0
 17 18  1  0  0  0  0
 17 22  2  0  0  0  0
 18 19  2  0  0  0  0
 18 39  1  0  0  0  0
 19 20  1  0  0  0  0
 19 40  1  0  0  0  0
 20 21  2  0  0  0  0
 20 41  1  0  0  0  0
 21 22  1  0  0  0  0
 21 42  1  0  0  0  0
 22 43  1  0  0  0  0
 23 24  2  0  0  0  0
 24 25  1  0  0  0  0
 24 44  1  0  0  0  0
 26 45  1  0  0  0  0
M  END
$$$$
