CHEMBL4452256
 OpenBabel04072215383D

 44 47  0  0  0  0  0  0  0  0999 V2000
    2.4967    1.5399    0.2589 C   0  0  0  0  0  0  0  0  0  0  0  0
    2.3189    0.1491   -0.0074 O   0  0  0  0  0  0  0  0  0  0  0  0
    3.0738   -0.6465    0.8291 C   0  0  0  0  0  0  0  0  0  0  0  0
    2.9761   -2.0169    0.6522 C   0  0  0  0  0  0  0  0  0  0  0  0
    3.7631   -2.8495    1.4541 C   0  0  0  0  0  0  0  0  0  0  0  0
    4.6406   -2.3042    2.4017 C   0  0  0  0  0  0  0  0  0  0  0  0
    5.5569   -3.1209    3.2271 C   0  0  0  0  0  0  0  0  0  0  0  0
    6.1345   -4.3051    2.7375 C   0  0  0  0  0  0  0  0  0  0  0  0
    7.0764   -5.0236    3.4851 C   0  0  0  0  0  0  0  0  0  0  0  0
    7.4739   -4.5752    4.7496 C   0  0  0  0  0  0  0  0  0  0  0  0
    8.5101   -5.3176    5.5504 C   0  0  0  0  0  0  0  0  0  0  0  0
    9.8573   -4.8497    5.2776 N   0  0  0  0  0  0  0  0  0  0  0  0
   10.7376   -5.3458    4.3581 C   0  0  0  0  0  0  0  0  0  0  0  0
   11.9360   -4.7551    4.6950 C   0  0  0  0  0  0  0  0  0  0  0  0
   13.2287   -5.0339    4.1016 C   0  0  0  0  0  0  0  0  0  0  0  0
   14.3894   -4.9126    4.8809 C   0  0  0  0  0  0  0  0  0  0  0  0
   15.6427   -5.2281    4.3494 C   0  0  0  0  0  0  0  0  0  0  0  0
   15.7491   -5.6574    3.0279 C   0  0  0  0  0  0  0  0  0  0  0  0
   14.6023   -5.7641    2.2437 C   0  0  0  0  0  0  0  0  0  0  0  0
   14.7328   -6.2912    0.6101 Cl  0  0  0  0  0  0  0  0  0  0  0  0
   13.3471   -5.4563    2.7706 C   0  0  0  0  0  0  0  0  0  0  0  0
   11.7384   -3.9132    5.7590 N   0  0  0  0  0  0  0  0  0  0  0  0
   10.4579   -3.9728    6.1045 N   0  0  0  0  0  0  0  0  0  0  0  0
    6.8941   -3.4104    5.2591 C   0  0  0  0  0  0  0  0  0  0  0  0
    5.9414   -2.7077    4.5161 C   0  0  0  0  0  0  0  0  0  0  0  0
    4.6346   -0.9088    2.4894 C   0  0  0  0  0  0  0  0  0  0  0  0
    3.8748   -0.0754    1.7434 N   0  0  0  0  0  0  0  0  0  0  0  0
    1.9713    2.1015   -0.5187 H   0  0  0  0  0  0  0  0  0  0  0  0
    3.5518    1.8349    0.2161 H   0  0  0  0  0  0  0  0  0  0  0  0
    2.0553    1.8057    1.2259 H   0  0  0  0  0  0  0  0  0  0  0  0
    2.3135   -2.4272   -0.0988 H   0  0  0  0  0  0  0  0  0  0  0  0
    3.6816   -3.9253    1.3194 H   0  0  0  0  0  0  0  0  0  0  0  0
    5.8839   -4.6718    1.7439 H   0  0  0  0  0  0  0  0  0  0  0  0
    7.5042   -5.9279    3.0572 H   0  0  0  0  0  0  0  0  0  0  0  0
    8.4779   -6.3902    5.3275 H   0  0  0  0  0  0  0  0  0  0  0  0
    8.3251   -5.2106    6.6260 H   0  0  0  0  0  0  0  0  0  0  0  0
   10.4584   -6.0857    3.6249 H   0  0  0  0  0  0  0  0  0  0  0  0
   14.3205   -4.5871    5.9183 H   0  0  0  0  0  0  0  0  0  0  0  0
   16.5320   -5.1437    4.9693 H   0  0  0  0  0  0  0  0  0  0  0  0
   16.7241   -5.9060    2.6169 H   0  0  0  0  0  0  0  0  0  0  0  0
   12.4689   -5.5423    2.1369 H   0  0  0  0  0  0  0  0  0  0  0  0
    7.1861   -3.0292    6.2368 H   0  0  0  0  0  0  0  0  0  0  0  0
    5.5112   -1.8142    4.9653 H   0  0  0  0  0  0  0  0  0  0  0  0
    5.2903   -0.3841    3.1793 H   0  0  0  0  0  0  0  0  0  0  0  0
  1  2  1  0  0  0  0
  1 28  1  0  0  0  0
  1 29  1  0  0  0  0
  1 30  1  0  0  0  0
  2  3  1  0  0  0  0
  3  4  1  0  0  0  0
  3 27  2  0  0  0  0
  4  5  2  0  0  0  0
  4 31  1  0  0  0  0
  5  6  1  0  0  0  0
  5 32  1  0  0  0  0
  6  7  1  0  0  0  0
  6 26  2  0  0  0  0
  7  8  1  0  0  0  0
  7 25  2  0  0  0  0
  8  9  2  0  0  0  0
  8 33  1  0  0  0  0
  9 10  1  0  0  0  0
  9 34  1  0  0  0  0
 10 11  1  0  0  0  0
 10 24  2  0  0  0  0
 11 12  1  0  0  0  0
 11 35  1  0  0  0  0
 11 36  1  0  0  0  0
 12 13  1  0  0  0  0
 12 23  1  0  0  0  0
 13 14  2  0  0  0  0
 13 37  1  0  0  0  0
 14 15  1  0  0  0  0
 14 22  1  0  0  0  0
 15 16  1  0  0  0  0
 15 21  2  0  0  0  0
 16 17  2  0  0  0  0
 16 38  1  0  0  0  0
 17 18  1  0  0  0  0
 17 39  1  0  0  0  0
 18 19  2  0  0  0  0
 18 40  1  0  0  0  0
 19 20  1  0  0  0  0
 19 21  1  0  0  0  0
 21 41  1  0  0  0  0
 22 23  2  0  0  0  0
 24 25  1  0  0  0  0
 24 42  1  0  0  0  0
 25 43  1  0  0  0  0
 26 27  1  0  0  0  0
 26 44  1  0  0  0  0
M  END
$$$$
