CHEMBL373365
 OpenBabel04072215373D

 57 60  0  0  0  0  0  0  0  0999 V2000
   -1.0946    3.6570   -9.6854 C   0  0  0  0  0  0  0  0  0  0  0  0
   -1.5685    3.4761   -8.3523 O   0  0  0  0  0  0  0  0  0  0  0  0
   -0.4947    3.0032   -7.5594 N   0  0  0  0  0  0  0  0  0  0  0  0
    0.2244    3.9881   -6.9189 C   0  0  0  0  0  0  0  0  0  0  0  0
    0.1376    5.1893   -7.1590 O   0  0  0  0  0  0  0  0  0  0  0  0
    1.1940    3.5389   -5.8945 C   0  0  0  0  0  0  0  0  0  0  0  0
    2.3212    4.3434   -5.6683 C   0  0  0  0  0  0  0  0  0  0  0  0
    3.2304    4.0415   -4.6491 C   0  0  0  0  0  0  0  0  0  0  0  0
    4.3653    4.8366   -4.3939 N   0  0  0  0  0  0  0  0  0  0  0  0
    4.9913    5.6858   -5.2766 C   0  0  0  0  0  0  0  0  0  0  0  0
    5.0577    5.3291   -6.5309 N   0  0  0  0  0  0  0  0  0  0  0  0
    5.7239    6.1016   -7.4353 C   0  0  0  0  0  0  0  0  0  0  0  0
    6.3396    7.2113   -7.1927 N   0  0  0  0  0  0  0  0  0  0  0  0
    6.2661    7.6023   -5.9165 N   0  0  0  0  0  0  0  0  0  0  0  0
    6.8200    8.7582   -5.4501 C   0  0  0  0  0  0  0  0  0  0  0  0
    6.5205    8.8661   -4.1099 C   0  0  0  0  0  0  0  0  0  0  0  0
    6.9769   10.0289   -3.2785 C   0  0  0  0  0  0  0  0  0  0  0  0
    6.7879   10.1252   -1.9753 N   0  0  0  0  0  0  0  0  0  0  0  0
    7.3193   11.3223   -1.5646 N   0  0  0  0  0  0  0  0  0  0  0  0
    7.8100   11.8941   -2.6404 C   0  0  0  0  0  0  0  0  0  0  0  0
    8.4720   13.2245   -2.7486 C   0  0  0  0  0  0  0  0  0  0  0  0
    9.9157   13.1024   -3.2254 C   0  0  0  0  0  0  0  0  0  0  0  0
    7.6735   14.1784   -3.6328 C   0  0  0  0  0  0  0  0  0  0  0  0
    7.6477   11.1333   -3.7694 O   0  0  0  0  0  0  0  0  0  0  0  0
    5.7131    7.7219   -3.7421 C   0  0  0  0  0  0  0  0  0  0  0  0
    5.0784    7.5438   -2.3728 C   0  0  0  0  0  0  0  0  0  0  0  0
    3.5520    7.4845   -2.4140 C   0  0  0  0  0  0  0  0  0  0  0  0
    5.7078    6.4401   -1.5256 C   0  0  0  0  0  0  0  0  0  0  0  0
    5.6244    6.9353   -4.9013 C   0  0  0  0  0  0  0  0  0  0  0  0
    3.0004    2.8836   -3.8897 C   0  0  0  0  0  0  0  0  0  0  0  0
    3.8525    2.5623   -2.9040 F   0  0  0  0  0  0  0  0  0  0  0  0
    1.9062    2.0543   -4.1241 C   0  0  0  0  0  0  0  0  0  0  0  0
    1.0055    2.3916   -5.1277 C   0  0  0  0  0  0  0  0  0  0  0  0
   -0.0578    1.5984   -5.3291 F   0  0  0  0  0  0  0  0  0  0  0  0
   -1.9179    4.0385  -10.2946 H   0  0  0  0  0  0  0  0  0  0  0  0
   -0.7595    2.7016  -10.1006 H   0  0  0  0  0  0  0  0  0  0  0  0
   -0.2777    4.3856   -9.7148 H   0  0  0  0  0  0  0  0  0  0  0  0
   -0.6464    2.0999   -7.1212 H   0  0  0  0  0  0  0  0  0  0  0  0
    2.4606    5.2349   -6.2782 H   0  0  0  0  0  0  0  0  0  0  0  0
    4.5784    4.9180   -3.4139 H   0  0  0  0  0  0  0  0  0  0  0  0
    5.7359    5.7191   -8.4713 H   0  0  0  0  0  0  0  0  0  0  0  0
    7.3651    9.4087   -6.1204 H   0  0  0  0  0  0  0  0  0  0  0  0
    8.4959   13.6572   -1.7399 H   0  0  0  0  0  0  0  0  0  0  0  0
    9.9755   12.6981   -4.2415 H   0  0  0  0  0  0  0  0  0  0  0  0
   10.4912   12.4411   -2.5677 H   0  0  0  0  0  0  0  0  0  0  0  0
   10.4058   14.0826   -3.2225 H   0  0  0  0  0  0  0  0  0  0  0  0
    7.6402   13.8359   -4.6726 H   0  0  0  0  0  0  0  0  0  0  0  0
    8.1203   15.1789   -3.6206 H   0  0  0  0  0  0  0  0  0  0  0  0
    6.6408   14.2709   -3.2779 H   0  0  0  0  0  0  0  0  0  0  0  0
    5.2700    8.4530   -1.7986 H   0  0  0  0  0  0  0  0  0  0  0  0
    3.1676    6.6529   -3.0037 H   0  0  0  0  0  0  0  0  0  0  0  0
    3.1493    8.4069   -2.8497 H   0  0  0  0  0  0  0  0  0  0  0  0
    3.1428    7.3949   -1.4017 H   0  0  0  0  0  0  0  0  0  0  0  0
    5.5018    5.4345   -1.8878 H   0  0  0  0  0  0  0  0  0  0  0  0
    5.3265    6.4919   -0.4990 H   0  0  0  0  0  0  0  0  0  0  0  0
    6.7962    6.5541   -1.4798 H   0  0  0  0  0  0  0  0  0  0  0  0
    1.7539    1.1653   -3.5222 H   0  0  0  0  0  0  0  0  0  0  0  0
  1  2  1  0  0  0  0
  1 35  1  0  0  0  0
  1 36  1  0  0  0  0
  1 37  1  0  0  0  0
  2  3  1  0  0  0  0
  3  4  1  0  0  0  0
  3 38  1  0  0  0  0
  4  5  2  0  0  0  0
  4  6  1  0  0  0  0
  6  7  1  0  0  0  0
  6 33  2  0  0  0  0
  7  8  2  0  0  0  0
  7 39  1  0  0  0  0
  8  9  1  0  0  0  0
  8 30  1  0  0  0  0
  9 10  1  0  0  0  0
  9 40  1  0  0  0  0
 10 11  2  0  0  0  0
 10 29  1  0  0  0  0
 11 12  1  0  0  0  0
 12 13  2  0  0  0  0
 12 41  1  0  0  0  0
 13 14  1  0  0  0  0
 14 15  1  0  0  0  0
 14 29  1  0  0  0  0
 15 16  2  0  0  0  0
 15 42  1  0  0  0  0
 16 17  1  0  0  0  0
 16 25  1  0  0  0  0
 17 18  2  0  0  0  0
 17 24  1  0  0  0  0
 18 19  1  0  0  0  0
 19 20  2  0  0  0  0
 20 21  1  0  0  0  0
 20 24  1  0  0  0  0
 21 22  1  0  0  0  0
 21 23  1  0  0  0  0
 21 43  1  0  0  0  0
 22 44  1  0  0  0  0
 22 45  1  0  0  0  0
 22 46  1  0  0  0  0
 23 47  1  0  0  0  0
 23 48  1  0  0  0  0
 23 49  1  0  0  0  0
 25 26  1  0  0  0  0
 25 29  2  0  0  0  0
 26 27  1  0  0  0  0
 26 28  1  0  0  0  0
 26 50  1  0  0  0  0
 27 51  1  0  0  0  0
 27 52  1  0  0  0  0
 27 53  1  0  0  0  0
 28 54  1  0  0  0  0
 28 55  1  0  0  0  0
 28 56  1  0  0  0  0
 30 31  1  0  0  0  0
 30 32  2  0  0  0  0
 32 33  1  0  0  0  0
 32 57  1  0  0  0  0
 33 34  1  0  0  0  0
M  END
$$$$
