CHEMBL1088796
 OpenBabel04072215363D

 50 54  0  0  0  0  0  0  0  0999 V2000
    2.4683    0.2603   -0.1290 C   0  0  0  0  0  0  0  0  0  0  0  0
    0.9685    0.1242   -0.0286 C   0  0  0  0  0  0  0  0  0  0  0  0
    0.2240    1.3232   -0.0168 C   0  0  0  0  0  0  0  0  0  0  0  0
   -1.1720    1.3166   -0.0036 C   0  0  0  0  0  0  0  0  0  0  0  0
   -1.8468    0.1018    0.0278 C   0  0  0  0  0  0  0  0  0  0  0  0
   -3.3322    0.0084   -0.0217 C   0  0  0  0  0  0  0  0  0  0  0  0
   -3.8656   -0.9761   -0.5184 O   0  0  0  0  0  0  0  0  0  0  0  0
   -4.0285    1.0605    0.5422 N   0  0  0  0  0  0  0  0  0  0  0  0
   -5.4558    1.0662    0.6003 C   0  0  0  0  0  0  0  0  0  0  0  0
   -6.2607    1.7227   -0.4863 C   0  0  0  0  0  0  0  0  0  0  0  0
   -6.2054    2.3387    0.8801 C   0  0  0  0  0  0  0  0  0  0  0  0
   -1.1151   -1.0921    0.0574 C   0  0  0  0  0  0  0  0  0  0  0  0
    0.2991   -1.1235    0.0296 C   0  0  0  0  0  0  0  0  0  0  0  0
    0.9744   -2.4524    0.0196 C   0  0  0  0  0  0  0  0  0  0  0  0
    0.4222   -3.5258   -0.6916 C   0  0  0  0  0  0  0  0  0  0  0  0
    1.0153   -4.7928   -0.6917 C   0  0  0  0  0  0  0  0  0  0  0  0
    2.2039   -5.0679    0.0254 C   0  0  0  0  0  0  0  0  0  0  0  0
    2.8513   -6.3285    0.1200 C   0  0  0  0  0  0  0  0  0  0  0  0
    2.3254   -7.5804   -0.4660 C   0  0  0  0  0  0  0  0  0  0  0  0
    0.9559   -7.9126   -0.4079 C   0  0  0  0  0  0  0  0  0  0  0  0
    0.4346   -9.0007   -1.1138 C   0  0  0  0  0  0  0  0  0  0  0  0
    1.2866   -9.8401   -1.8222 C   0  0  0  0  0  0  0  0  0  0  0  0
    2.6575   -9.6003   -1.8041 C   0  0  0  0  0  0  0  0  0  0  0  0
    3.1632   -8.4813   -1.1402 C   0  0  0  0  0  0  0  0  0  0  0  0
    4.4878   -8.2745   -1.1995 F   0  0  0  0  0  0  0  0  0  0  0  0
    4.0336   -6.4595    0.7748 N   0  0  0  0  0  0  0  0  0  0  0  0
    4.6383   -5.3826    1.3503 N   0  0  0  0  0  0  0  0  0  0  0  0
    4.0228   -4.1884    1.3095 C   0  0  0  0  0  0  0  0  0  0  0  0
    2.7975   -3.9823    0.6886 C   0  0  0  0  0  0  0  0  0  0  0  0
    2.1644   -2.7189    0.7139 C   0  0  0  0  0  0  0  0  0  0  0  0
    2.7592    1.2764   -0.4158 H   0  0  0  0  0  0  0  0  0  0  0  0
    2.8729   -0.4092   -0.8950 H   0  0  0  0  0  0  0  0  0  0  0  0
    2.9407    0.0642    0.8376 H   0  0  0  0  0  0  0  0  0  0  0  0
    0.7396    2.2802   -0.0563 H   0  0  0  0  0  0  0  0  0  0  0  0
   -1.6994    2.2620   -0.0609 H   0  0  0  0  0  0  0  0  0  0  0  0
   -3.5289    1.7560    1.0800 H   0  0  0  0  0  0  0  0  0  0  0  0
   -5.8667    0.1517    1.0253 H   0  0  0  0  0  0  0  0  0  0  0  0
   -7.1755    1.2303   -0.7953 H   0  0  0  0  0  0  0  0  0  0  0  0
   -5.7268    2.2095   -1.2939 H   0  0  0  0  0  0  0  0  0  0  0  0
   -7.0923    2.2743    1.4997 H   0  0  0  0  0  0  0  0  0  0  0  0
   -5.6493    3.2613    0.9916 H   0  0  0  0  0  0  0  0  0  0  0  0
   -1.6797   -2.0241    0.0987 H   0  0  0  0  0  0  0  0  0  0  0  0
   -0.4956   -3.4033   -1.2663 H   0  0  0  0  0  0  0  0  0  0  0  0
    0.5236   -5.5588   -1.2856 H   0  0  0  0  0  0  0  0  0  0  0  0
    0.2637   -7.2997    0.1679 H   0  0  0  0  0  0  0  0  0  0  0  0
   -0.6380   -9.1811   -1.1151 H   0  0  0  0  0  0  0  0  0  0  0  0
    0.8855  -10.6820   -2.3797 H   0  0  0  0  0  0  0  0  0  0  0  0
    3.3430  -10.2643   -2.3213 H   0  0  0  0  0  0  0  0  0  0  0  0
    4.5694   -3.3824    1.7881 H   0  0  0  0  0  0  0  0  0  0  0  0
    2.6200   -1.9401    1.3177 H   0  0  0  0  0  0  0  0  0  0  0  0
  1  2  1  0  0  0  0
  1 31  1  0  0  0  0
  1 32  1  0  0  0  0
  1 33  1  0  0  0  0
  2  3  1  0  0  0  0
  2 13  2  0  0  0  0
  3  4  2  0  0  0  0
  3 34  1  0  0  0  0
  4  5  1  0  0  0  0
  4 35  1  0  0  0  0
  5  6  1  0  0  0  0
  5 12  2  0  0  0  0
  6  7  2  0  0  0  0
  6  8  1  0  0  0  0
  8  9  1  0  0  0  0
  8 36  1  0  0  0  0
  9 10  1  0  0  0  0
  9 11  1  0  0  0  0
  9 37  1  0  0  0  0
 10 11  1  0  0  0  0
 10 38  1  0  0  0  0
 10 39  1  0  0  0  0
 11 40  1  0  0  0  0
 11 41  1  0  0  0  0
 12 13  1  0  0  0  0
 12 42  1  0  0  0  0
 13 14  1  0  0  0  0
 14 15  1  0  0  0  0
 14 30  2  0  0  0  0
 15 16  2  0  0  0  0
 15 43  1  0  0  0  0
 16 17  1  0  0  0  0
 16 44  1  0  0  0  0
 17 18  1  0  0  0  0
 17 29  2  0  0  0  0
 18 19  1  0  0  0  0
 18 26  2  0  0  0  0
 19 20  1  0  0  0  0
 19 24  2  0  0  0  0
 20 21  2  0  0  0  0
 20 45  1  0  0  0  0
 21 22  1  0  0  0  0
 21 46  1  0  0  0  0
 22 23  2  0  0  0  0
 22 47  1  0  0  0  0
 23 24  1  0  0  0  0
 23 48  1  0  0  0  0
 24 25  1  0  0  0  0
 26 27  1  0  0  0  0
 27 28  2  0  0  0  0
 28 29  1  0  0  0  0
 28 49  1  0  0  0  0
 29 30  1  0  0  0  0
 30 50  1  0  0  0  0
M  END
$$$$
