CHEMBL3221556
 OpenBabel04072215363D

 55 56  0  0  0  0  0  0  0  0999 V2000
    9.2664   -1.5073    2.6591 C   0  0  0  0  0  0  0  0  0  0  0  0
   10.0867   -0.8275    1.5686 C   0  0  0  0  0  0  0  0  0  0  0  0
    9.2115   -0.2786    0.4403 C   0  0  0  0  0  0  0  0  0  0  0  0
    8.5397   -1.2902   -0.2273 O   0  0  0  0  0  0  0  0  0  0  0  0
    7.1902   -1.3624   -0.3997 C   0  0  0  0  0  0  0  0  0  0  0  0
    6.4521   -0.6337    0.2488 O   0  0  0  0  0  0  0  0  0  0  0  0
    6.6453   -2.1650   -1.3618 N   0  0  0  0  0  0  0  0  0  0  0  0
    7.3794   -3.0848   -2.1822 C   0  0  0  0  0  0  0  0  0  0  0  0
    8.5596   -3.6866   -1.7105 C   0  0  0  0  0  0  0  0  0  0  0  0
    9.2652   -4.5859   -2.4928 C   0  0  0  0  0  0  0  0  0  0  0  0
    8.8197   -4.9309   -3.7778 C   0  0  0  0  0  0  0  0  0  0  0  0
    9.5347   -5.8775   -4.5660 N   0  0  0  0  0  0  0  0  0  0  0  0
   10.9281   -6.1333   -4.3640 C   0  0  0  0  0  0  0  0  0  0  0  0
   11.7192   -5.1179   -3.9335 N   0  0  0  0  0  0  0  0  0  0  0  0
   13.0481   -5.2778   -3.7159 C   0  0  0  0  0  0  0  0  0  0  0  0
   13.6176   -6.4901   -3.9012 N   0  0  0  0  0  0  0  0  0  0  0  0
   12.8800   -7.5494   -4.3186 C   0  0  0  0  0  0  0  0  0  0  0  0
   13.4864   -8.7945   -4.4613 C   0  0  0  0  0  0  0  0  0  0  0  0
   12.7494   -9.9301   -4.8664 C   0  0  0  0  0  0  0  0  0  0  0  0
   13.3579  -11.1458   -4.9711 O   0  0  0  0  0  0  0  0  0  0  0  0
   14.6911  -11.3900   -4.6673 C   0  0  0  0  0  0  0  0  0  0  0  0
   11.3588   -9.7721   -5.1468 C   0  0  0  0  0  0  0  0  0  0  0  0
   10.5074  -10.7525   -5.5533 O   0  0  0  0  0  0  0  0  0  0  0  0
   10.7277  -12.0857   -5.8000 C   0  0  0  0  0  0  0  0  0  0  0  0
   10.7657   -8.5148   -4.9948 C   0  0  0  0  0  0  0  0  0  0  0  0
   11.5034   -7.4007   -4.5823 C   0  0  0  0  0  0  0  0  0  0  0  0
    7.6325   -4.3653   -4.2557 C   0  0  0  0  0  0  0  0  0  0  0  0
    6.9107   -3.4381   -3.4784 C   0  0  0  0  0  0  0  0  0  0  0  0
    5.6748   -2.8098   -4.0677 C   0  0  0  0  0  0  0  0  0  0  0  0
   -0.0724   -2.1307   -1.0651 Cl  0  0  0  0  0  0  0  0  0  0  0  0
    9.9451   -1.8533    3.4680 H   0  0  0  0  0  0  0  0  0  0  0  0
    8.7275   -2.3854    2.2465 H   0  0  0  0  0  0  0  0  0  0  0  0
    8.5335   -0.7931    3.0913 H   0  0  0  0  0  0  0  0  0  0  0  0
   10.8257   -1.5478    1.1559 H   0  0  0  0  0  0  0  0  0  0  0  0
   10.6430    0.0223    2.0221 H   0  0  0  0  0  0  0  0  0  0  0  0
    9.8754    0.2260   -0.2932 H   0  0  0  0  0  0  0  0  0  0  0  0
    8.5162    0.4889    0.8442 H   0  0  0  0  0  0  0  0  0  0  0  0
    5.6351   -2.0606   -1.5359 H   0  0  0  0  0  0  0  0  0  0  0  0
    8.9422   -3.5024   -0.7198 H   0  0  0  0  0  0  0  0  0  0  0  0
   10.1480   -5.0373   -2.0629 H   0  0  0  0  0  0  0  0  0  0  0  0
    9.0218   -6.3905   -5.2981 H   0  0  0  0  0  0  0  0  0  0  0  0
   13.6431   -4.4377   -3.3898 H   0  0  0  0  0  0  0  0  0  0  0  0
   14.5441   -8.8598   -4.2342 H   0  0  0  0  0  0  0  0  0  0  0  0
   14.9285  -12.4609   -4.8203 H   0  0  0  0  0  0  0  0  0  0  0  0
   14.9023  -11.1362   -3.6032 H   0  0  0  0  0  0  0  0  0  0  0  0
   15.3556  -10.7863   -5.3239 H   0  0  0  0  0  0  0  0  0  0  0  0
    9.7616  -12.5242   -6.1361 H   0  0  0  0  0  0  0  0  0  0  0  0
   11.0383  -12.6086   -4.8738 H   0  0  0  0  0  0  0  0  0  0  0  0
   11.4654  -12.2158   -6.6166 H   0  0  0  0  0  0  0  0  0  0  0  0
    9.7080   -8.4381   -5.1931 H   0  0  0  0  0  0  0  0  0  0  0  0
    7.2828   -4.6359   -5.2459 H   0  0  0  0  0  0  0  0  0  0  0  0
    5.4930   -3.1583   -5.1073 H   0  0  0  0  0  0  0  0  0  0  0  0
    5.8080   -1.7071   -4.1041 H   0  0  0  0  0  0  0  0  0  0  0  0
    4.7811   -3.0576   -3.4607 H   0  0  0  0  0  0  0  0  0  0  0  0
    0.7135   -1.1828   -1.6785 H   0  0  0  0  0  0  0  0  0  0  0  0
  1  2  1  0  0  0  0
  1 31  1  0  0  0  0
  1 32  1  0  0  0  0
  1 33  1  0  0  0  0
  2  3  1  0  0  0  0
  2 34  1  0  0  0  0
  2 35  1  0  0  0  0
  3  4  1  0  0  0  0
  3 36  1  0  0  0  0
  3 37  1  0  0  0  0
  4  5  1  0  0  0  0
  5  6  2  0  0  0  0
  5  7  1  0  0  0  0
  7  8  1  0  0  0  0
  7 38  1  0  0  0  0
  8  9  1  0  0  0  0
  8 28  2  0  0  0  0
  9 10  2  0  0  0  0
  9 39  1  0  0  0  0
 10 11  1  0  0  0  0
 10 40  1  0  0  0  0
 11 12  1  0  0  0  0
 11 27  2  0  0  0  0
 12 13  1  0  0  0  0
 12 41  1  0  0  0  0
 13 14  1  0  0  0  0
 13 26  2  0  0  0  0
 14 15  2  0  0  0  0
 15 16  1  0  0  0  0
 15 42  1  0  0  0  0
 16 17  2  0  0  0  0
 17 18  1  0  0  0  0
 17 26  1  0  0  0  0
 18 19  2  0  0  0  0
 18 43  1  0  0  0  0
 19 20  1  0  0  0  0
 19 22  1  0  0  0  0
 20 21  1  0  0  0  0
 21 44  1  0  0  0  0
 21 45  1  0  0  0  0
 21 46  1  0  0  0  0
 22 23  1  0  0  0  0
 22 25  2  0  0  0  0
 23 24  1  0  0  0  0
 24 47  1  0  0  0  0
 24 48  1  0  0  0  0
 24 49  1  0  0  0  0
 25 26  1  0  0  0  0
 25 50  1  0  0  0  0
 27 28  1  0  0  0  0
 27 51  1  0  0  0  0
 28 29  1  0  0  0  0
 29 52  1  0  0  0  0
 29 53  1  0  0  0  0
 29 54  1  0  0  0  0
 30 55  1  0  0  0  0
M  END
$$$$
