CHEMBL3977041
 OpenBabel04072215373D

 55 58  0  0  0  0  0  0  0  0999 V2000
    2.6111    0.1900    0.1342 C   0  0  0  0  0  0  0  0  0  0  0  0
    1.1124    0.0589    0.1465 C   0  0  0  0  0  0  0  0  0  0  0  0
    0.3742    1.2635    0.1513 C   0  0  0  0  0  0  0  0  0  0  0  0
   -1.0144    1.2784   -0.0018 C   0  0  0  0  0  0  0  0  0  0  0  0
   -1.7732    2.4286   -0.0890 O   0  0  0  0  0  0  0  0  0  0  0  0
   -1.2432    3.5307   -0.7337 C   0  0  0  0  0  0  0  0  0  0  0  0
   -0.3701    3.4339   -1.8128 C   0  0  0  0  0  0  0  0  0  0  0  0
    0.1783    4.5969   -2.2978 C   0  0  0  0  0  0  0  0  0  0  0  0
   -0.1474    5.8148   -1.8316 N   0  0  0  0  0  0  0  0  0  0  0  0
   -1.0614    5.9199   -0.8529 C   0  0  0  0  0  0  0  0  0  0  0  0
   -1.4337    7.1970   -0.3959 N   0  0  0  0  0  0  0  0  0  0  0  0
   -0.8783    8.3716   -0.8691 C   0  0  0  0  0  0  0  0  0  0  0  0
    0.0044    8.4901   -1.7072 O   0  0  0  0  0  0  0  0  0  0  0  0
   -1.3912    9.6424   -0.2754 C   0  0  0  0  0  0  0  0  0  0  0  0
   -1.1636    9.9114    1.1946 C   0  0  0  0  0  0  0  0  0  0  0  0
   -2.5617    9.8144    0.6546 C   0  0  0  0  0  0  0  0  0  0  0  0
   -1.6357    4.7918   -0.2722 C   0  0  0  0  0  0  0  0  0  0  0  0
   -1.6908    0.0701   -0.0504 C   0  0  0  0  0  0  0  0  0  0  0  0
   -0.9805   -1.1316    0.0105 C   0  0  0  0  0  0  0  0  0  0  0  0
    0.4225   -1.1694    0.1088 C   0  0  0  0  0  0  0  0  0  0  0  0
    1.1356   -2.4095    0.1803 N   0  0  0  0  0  0  0  0  0  0  0  0
    0.5586   -3.6566    0.4035 C   0  0  0  0  0  0  0  0  0  0  0  0
   -0.6409   -3.8775    0.5270 O   0  0  0  0  0  0  0  0  0  0  0  0
    1.5079   -4.6663    0.5559 N   0  0  0  0  0  0  0  0  0  0  0  0
    1.0929   -5.9936    0.8553 C   0  0  0  0  0  0  0  0  0  0  0  0
    1.7090   -6.6665    1.9084 C   0  0  0  0  0  0  0  0  0  0  0  0
    1.2509   -7.9279    2.2784 C   0  0  0  0  0  0  0  0  0  0  0  0
    1.7968   -8.5383    3.3383 F   0  0  0  0  0  0  0  0  0  0  0  0
    0.2282   -8.5634    1.5833 C   0  0  0  0  0  0  0  0  0  0  0  0
   -0.3669   -7.9288    0.4863 C   0  0  0  0  0  0  0  0  0  0  0  0
   -1.4408   -8.6241   -0.3154 C   0  0  0  0  0  0  0  0  0  0  0  0
   -1.7085   -9.8873    0.1243 F   0  0  0  0  0  0  0  0  0  0  0  0
   -2.6311   -7.9668   -0.2994 F   0  0  0  0  0  0  0  0  0  0  0  0
   -1.1007   -8.7594   -1.6276 F   0  0  0  0  0  0  0  0  0  0  0  0
    0.0636   -6.6315    0.1410 C   0  0  0  0  0  0  0  0  0  0  0  0
    2.9183    1.2304    0.3029 H   0  0  0  0  0  0  0  0  0  0  0  0
    3.0026   -0.1025   -0.8454 H   0  0  0  0  0  0  0  0  0  0  0  0
    3.0722   -0.4105    0.9208 H   0  0  0  0  0  0  0  0  0  0  0  0
    0.9066    2.2087    0.2464 H   0  0  0  0  0  0  0  0  0  0  0  0
   -0.0833    2.4834   -2.2483 H   0  0  0  0  0  0  0  0  0  0  0  0
    0.9237    4.5890   -3.0878 H   0  0  0  0  0  0  0  0  0  0  0  0
   -2.1317    7.2477    0.3261 H   0  0  0  0  0  0  0  0  0  0  0  0
   -1.2141   10.4841   -0.9444 H   0  0  0  0  0  0  0  0  0  0  0  0
   -0.7702   10.8867    1.4599 H   0  0  0  0  0  0  0  0  0  0  0  0
   -0.7958    9.1053    1.8189 H   0  0  0  0  0  0  0  0  0  0  0  0
   -3.1268   10.7388    0.5679 H   0  0  0  0  0  0  0  0  0  0  0  0
   -3.1713    8.9701    0.9411 H   0  0  0  0  0  0  0  0  0  0  0  0
   -2.3602    4.8706    0.5286 H   0  0  0  0  0  0  0  0  0  0  0  0
   -2.7728    0.0422   -0.1427 H   0  0  0  0  0  0  0  0  0  0  0  0
   -1.5730   -2.0396   -0.0570 H   0  0  0  0  0  0  0  0  0  0  0  0
    2.1358   -2.3654    0.1107 H   0  0  0  0  0  0  0  0  0  0  0  0
    2.3688   -4.3652    0.9897 H   0  0  0  0  0  0  0  0  0  0  0  0
    2.4933   -6.2063    2.4986 H   0  0  0  0  0  0  0  0  0  0  0  0
   -0.0953   -9.5509    1.9055 H   0  0  0  0  0  0  0  0  0  0  0  0
   -0.4126   -6.1217   -0.6972 H   0  0  0  0  0  0  0  0  0  0  0  0
  1  2  1  0  0  0  0
  1 36  1  0  0  0  0
  1 37  1  0  0  0  0
  1 38  1  0  0  0  0
  2  3  1  0  0  0  0
  2 20  2  0  0  0  0
  3  4  2  0  0  0  0
  3 39  1  0  0  0  0
  4  5  1  0  0  0  0
  4 18  1  0  0  0  0
  5  6  1  0  0  0  0
  6  7  1  0  0  0  0
  6 17  2  0  0  0  0
  7  8  2  0  0  0  0
  7 40  1  0  0  0  0
  8  9  1  0  0  0  0
  8 41  1  0  0  0  0
  9 10  2  0  0  0  0
 10 11  1  0  0  0  0
 10 17  1  0  0  0  0
 11 12  1  0  0  0  0
 11 42  1  0  0  0  0
 12 13  2  0  0  0  0
 12 14  1  0  0  0  0
 14 15  1  0  0  0  0
 14 16  1  0  0  0  0
 14 43  1  0  0  0  0
 15 16  1  0  0  0  0
 15 44  1  0  0  0  0
 15 45  1  0  0  0  0
 16 46  1  0  0  0  0
 16 47  1  0  0  0  0
 17 48  1  0  0  0  0
 18 19  2  0  0  0  0
 18 49  1  0  0  0  0
 19 20  1  0  0  0  0
 19 50  1  0  0  0  0
 20 21  1  0  0  0  0
 21 22  1  0  0  0  0
 21 51  1  0  0  0  0
 22 23  2  0  0  0  0
 22 24  1  0  0  0  0
 24 25  1  0  0  0  0
 24 52  1  0  0  0  0
 25 26  1  0  0  0  0
 25 35  2  0  0  0  0
 26 27  2  0  0  0  0
 26 53  1  0  0  0  0
 27 28  1  0  0  0  0
 27 29  1  0  0  0  0
 29 30  2  0  0  0  0
 29 54  1  0  0  0  0
 30 31  1  0  0  0  0
 30 35  1  0  0  0  0
 31 32  1  0  0  0  0
 31 33  1  0  0  0  0
 31 34  1  0  0  0  0
 35 55  1  0  0  0  0
M  END
$$$$
