CHEMBL3628805
 OpenBabel04072215363D

 38 40  0  0  0  0  0  0  0  0999 V2000
    2.0304   -3.4111   -2.6300 C   0  0  0  0  0  0  0  0  0  0  0  0
    1.8512   -3.9187   -1.2091 C   0  0  0  0  0  0  0  0  0  0  0  0
    2.8177   -3.2738   -0.3616 O   0  0  0  0  0  0  0  0  0  0  0  0
    4.0196   -3.9092   -0.3211 C   0  0  0  0  0  0  0  0  0  0  0  0
    4.1981   -5.0346   -0.7719 O   0  0  0  0  0  0  0  0  0  0  0  0
    4.9568   -3.0899    0.2506 N   0  0  0  0  0  0  0  0  0  0  0  0
    6.3528   -3.3011    0.2640 C   0  0  0  0  0  0  0  0  0  0  0  0
    6.9423   -4.3015   -0.5245 C   0  0  0  0  0  0  0  0  0  0  0  0
    8.3190   -4.5170   -0.5181 C   0  0  0  0  0  0  0  0  0  0  0  0
    9.1399   -3.7237    0.2697 C   0  0  0  0  0  0  0  0  0  0  0  0
   10.4859   -3.9884    0.1913 O   0  0  0  0  0  0  0  0  0  0  0  0
   11.2694   -3.7869    1.3204 C   0  0  0  0  0  0  0  0  0  0  0  0
   10.7267   -3.8840    2.5539 N   0  0  0  0  0  0  0  0  0  0  0  0
   11.5200   -3.6496    3.6061 C   0  0  0  0  0  0  0  0  0  0  0  0
   12.8209   -3.3443    3.5914 N   0  0  0  0  0  0  0  0  0  0  0  0
   13.3285   -3.3089    2.3481 C   0  0  0  0  0  0  0  0  0  0  0  0
   14.9762   -2.9660    2.0768 S   0  0  0  0  0  0  0  0  0  0  0  0
   14.7948   -3.1212    0.3825 C   0  0  0  0  0  0  0  0  0  0  0  0
   13.4975   -3.4193    0.0294 C   0  0  0  0  0  0  0  0  0  0  0  0
   12.6317   -3.5258    1.1679 C   0  0  0  0  0  0  0  0  0  0  0  0
    8.5788   -2.6802    1.0099 C   0  0  0  0  0  0  0  0  0  0  0  0
    7.1848   -2.4767    1.0460 C   0  0  0  0  0  0  0  0  0  0  0  0
    6.6537   -1.3975    1.9493 C   0  0  0  0  0  0  0  0  0  0  0  0
    1.3505   -3.9183   -3.3196 H   0  0  0  0  0  0  0  0  0  0  0  0
    3.0583   -3.5608   -2.9774 H   0  0  0  0  0  0  0  0  0  0  0  0
    1.8388   -2.3339   -2.6717 H   0  0  0  0  0  0  0  0  0  0  0  0
    1.9339   -5.0127   -1.1705 H   0  0  0  0  0  0  0  0  0  0  0  0
    0.8544   -3.6662   -0.8377 H   0  0  0  0  0  0  0  0  0  0  0  0
    4.5818   -2.2528    0.6741 H   0  0  0  0  0  0  0  0  0  0  0  0
    6.3556   -4.9320   -1.1833 H   0  0  0  0  0  0  0  0  0  0  0  0
    8.7372   -5.3092   -1.1329 H   0  0  0  0  0  0  0  0  0  0  0  0
   11.0477   -3.7057    4.5821 H   0  0  0  0  0  0  0  0  0  0  0  0
   15.6467   -2.9855   -0.2704 H   0  0  0  0  0  0  0  0  0  0  0  0
   13.1739   -3.5595   -0.9965 H   0  0  0  0  0  0  0  0  0  0  0  0
    9.2248   -2.0266    1.5905 H   0  0  0  0  0  0  0  0  0  0  0  0
    7.4442   -0.9859    2.5875 H   0  0  0  0  0  0  0  0  0  0  0  0
    5.8887   -1.8039    2.6191 H   0  0  0  0  0  0  0  0  0  0  0  0
    6.2346   -0.5752    1.3627 H   0  0  0  0  0  0  0  0  0  0  0  0
  1  2  1  0  0  0  0
  1 24  1  0  0  0  0
  1 25  1  0  0  0  0
  1 26  1  0  0  0  0
  2  3  1  0  0  0  0
  2 27  1  0  0  0  0
  2 28  1  0  0  0  0
  3  4  1  0  0  0  0
  4  5  2  0  0  0  0
  4  6  1  0  0  0  0
  6  7  1  0  0  0  0
  6 29  1  0  0  0  0
  7  8  1  0  0  0  0
  7 22  2  0  0  0  0
  8  9  2  0  0  0  0
  8 30  1  0  0  0  0
  9 10  1  0  0  0  0
  9 31  1  0  0  0  0
 10 11  1  0  0  0  0
 10 21  2  0  0  0  0
 11 12  1  0  0  0  0
 12 13  1  0  0  0  0
 12 20  2  0  0  0  0
 13 14  2  0  0  0  0
 14 15  1  0  0  0  0
 14 32  1  0  0  0  0
 15 16  2  0  0  0  0
 16 17  1  0  0  0  0
 16 20  1  0  0  0  0
 17 18  1  0  0  0  0
 18 19  2  0  0  0  0
 18 33  1  0  0  0  0
 19 20  1  0  0  0  0
 19 34  1  0  0  0  0
 21 22  1  0  0  0  0
 21 35  1  0  0  0  0
 22 23  1  0  0  0  0
 23 36  1  0  0  0  0
 23 37  1  0  0  0  0
 23 38  1  0  0  0  0
M  END
$$$$
