CHEMBL3260567
 OpenBabel04072215363D

 48 52  0  0  0  0  0  0  0  0999 V2000
   -2.1676   -2.2295    0.5471 C   0  0  0  0  0  0  0  0  0  0  0  0
   -1.2982   -1.0893    0.1080 C   0  0  0  0  0  0  0  0  0  0  0  0
   -0.0597   -1.3220   -0.4792 C   0  0  0  0  0  0  0  0  0  0  0  0
    0.7064   -0.2322   -0.8788 C   0  0  0  0  0  0  0  0  0  0  0  0
    0.2137    1.0554   -0.6911 C   0  0  0  0  0  0  0  0  0  0  0  0
   -1.0374    1.2075   -0.1068 C   0  0  0  0  0  0  0  0  0  0  0  0
   -1.6655    2.5086    0.0684 C   0  0  0  0  0  0  0  0  0  0  0  0
   -1.5332    3.5520   -0.8222 N   0  0  0  0  0  0  0  0  0  0  0  0
   -2.3079    4.6028   -0.3931 C   0  0  0  0  0  0  0  0  0  0  0  0
   -2.3920    5.8915   -1.1584 C   0  0  0  0  0  0  0  0  0  0  0  0
   -1.3457    6.8282   -0.7577 N   0  0  0  0  0  0  0  0  0  0  0  0
   -1.2966    8.1187   -1.3030 C   0  0  0  0  0  0  0  0  0  0  0  0
   -0.3131    8.9883   -0.8020 C   0  0  0  0  0  0  0  0  0  0  0  0
   -0.1114   10.2616   -1.3468 C   0  0  0  0  0  0  0  0  0  0  0  0
   -0.8915   10.6954   -2.4143 C   0  0  0  0  0  0  0  0  0  0  0  0
   -1.8697    9.8529   -2.9345 C   0  0  0  0  0  0  0  0  0  0  0  0
   -2.0553    8.5788   -2.3923 C   0  0  0  0  0  0  0  0  0  0  0  0
   -3.0047    7.8059   -2.9433 F   0  0  0  0  0  0  0  0  0  0  0  0
   -2.8782    4.3185    0.7606 N   0  0  0  0  0  0  0  0  0  0  0  0
   -2.5089    3.0258    1.0358 C   0  0  0  0  0  0  0  0  0  0  0  0
   -2.9419    2.3956    2.2378 C   0  0  0  0  0  0  0  0  0  0  0  0
   -2.1587    2.5524    3.4681 C   0  0  0  0  0  0  0  0  0  0  0  0
   -2.5024    1.9464    4.6216 C   0  0  0  0  0  0  0  0  0  0  0  0
   -3.6655    1.1315    4.6607 C   0  0  0  0  0  0  0  0  0  0  0  0
   -4.2169    0.4302    5.6254 N   0  0  0  0  0  0  0  0  0  0  0  0
   -5.3068   -0.1120    5.0157 C   0  0  0  0  0  0  0  0  0  0  0  0
   -5.4770    0.2018    3.7289 N   0  0  0  0  0  0  0  0  0  0  0  0
   -4.4127    1.0093    3.4847 N   0  0  0  0  0  0  0  0  0  0  0  0
   -4.0545    1.6364    2.2968 C   0  0  0  0  0  0  0  0  0  0  0  0
   -1.7893    0.1593    0.2971 N   0  0  0  0  0  0  0  0  0  0  0  0
   -1.6962   -3.1976    0.3505 H   0  0  0  0  0  0  0  0  0  0  0  0
   -3.1189   -2.1993    0.0068 H   0  0  0  0  0  0  0  0  0  0  0  0
   -2.3654   -2.1580    1.6211 H   0  0  0  0  0  0  0  0  0  0  0  0
    0.3077   -2.3324   -0.6278 H   0  0  0  0  0  0  0  0  0  0  0  0
    1.6793   -0.3867   -1.3370 H   0  0  0  0  0  0  0  0  0  0  0  0
    0.8081    1.9101   -0.9917 H   0  0  0  0  0  0  0  0  0  0  0  0
   -0.9789    3.5473   -1.6665 H   0  0  0  0  0  0  0  0  0  0  0  0
   -3.3844    6.3261   -0.9891 H   0  0  0  0  0  0  0  0  0  0  0  0
   -2.2961    5.6641   -2.2275 H   0  0  0  0  0  0  0  0  0  0  0  0
   -1.2543    6.8534    0.2578 H   0  0  0  0  0  0  0  0  0  0  0  0
    0.3260    8.6652    0.0172 H   0  0  0  0  0  0  0  0  0  0  0  0
    0.6652   10.9059   -0.9415 H   0  0  0  0  0  0  0  0  0  0  0  0
   -0.7316   11.6810   -2.8439 H   0  0  0  0  0  0  0  0  0  0  0  0
   -2.4872   10.1734   -3.7677 H   0  0  0  0  0  0  0  0  0  0  0  0
   -1.2778    3.1863    3.4234 H   0  0  0  0  0  0  0  0  0  0  0  0
   -1.9180    2.0666    5.5247 H   0  0  0  0  0  0  0  0  0  0  0  0
   -6.0061   -0.7605    5.5262 H   0  0  0  0  0  0  0  0  0  0  0  0
   -4.7008    1.4561    1.4486 H   0  0  0  0  0  0  0  0  0  0  0  0
  1  2  1  0  0  0  0
  1 31  1  0  0  0  0
  1 32  1  0  0  0  0
  1 33  1  0  0  0  0
  2  3  1  0  0  0  0
  2 30  2  0  0  0  0
  3  4  2  0  0  0  0
  3 34  1  0  0  0  0
  4  5  1  0  0  0  0
  4 35  1  0  0  0  0
  5  6  2  0  0  0  0
  5 36  1  0  0  0  0
  6  7  1  0  0  0  0
  6 30  1  0  0  0  0
  7  8  1  0  0  0  0
  7 20  2  0  0  0  0
  8  9  1  0  0  0  0
  8 37  1  0  0  0  0
  9 10  1  0  0  0  0
  9 19  2  0  0  0  0
 10 11  1  0  0  0  0
 10 38  1  0  0  0  0
 10 39  1  0  0  0  0
 11 12  1  0  0  0  0
 11 40  1  0  0  0  0
 12 13  1  0  0  0  0
 12 17  2  0  0  0  0
 13 14  2  0  0  0  0
 13 41  1  0  0  0  0
 14 15  1  0  0  0  0
 14 42  1  0  0  0  0
 15 16  2  0  0  0  0
 15 43  1  0  0  0  0
 16 17  1  0  0  0  0
 16 44  1  0  0  0  0
 17 18  1  0  0  0  0
 19 20  1  0  0  0  0
 20 21  1  0  0  0  0
 21 22  1  0  0  0  0
 21 29  2  0  0  0  0
 22 23  2  0  0  0  0
 22 45  1  0  0  0  0
 23 24  1  0  0  0  0
 23 46  1  0  0  0  0
 24 25  2  0  0  0  0
 24 28  1  0  0  0  0
 25 26  1  0  0  0  0
 26 27  2  0  0  0  0
 26 47  1  0  0  0  0
 27 28  1  0  0  0  0
 28 29  1  0  0  0  0
 29 48  1  0  0  0  0
M  END
$$$$
