CHEMBL3589200
 OpenBabel04072215363D

 48 51  0  0  0  0  0  0  0  0999 V2000
   -0.6888   -0.4793   -3.1147 N   0  0  0  0  0  0  0  0  0  0  0  0
    0.5480   -0.2942   -1.9978 S   0  0  0  0  0  0  0  0  0  0  0  0
    1.2483    0.9095   -2.3633 O   0  0  0  0  0  0  0  0  0  0  0  0
   -0.0684   -0.4964   -0.6998 O   0  0  0  0  0  0  0  0  0  0  0  0
    1.5613   -1.6955   -2.3596 C   0  0  0  0  0  0  0  0  0  0  0  0
    2.5474   -1.5716   -3.3288 C   0  0  0  0  0  0  0  0  0  0  0  0
    3.3392   -2.6751   -3.6333 C   0  0  0  0  0  0  0  0  0  0  0  0
    3.1698   -3.9069   -2.9816 C   0  0  0  0  0  0  0  0  0  0  0  0
    3.9217   -5.0649   -3.3013 N   0  0  0  0  0  0  0  0  0  0  0  0
    4.9106   -5.1096   -4.2542 C   0  0  0  0  0  0  0  0  0  0  0  0
    5.2874   -4.1356   -4.9004 O   0  0  0  0  0  0  0  0  0  0  0  0
    5.4657   -6.3737   -4.4294 N   0  0  0  0  0  0  0  0  0  0  0  0
    6.6225   -6.4570   -5.2404 C   0  0  0  0  0  0  0  0  0  0  0  0
    7.5872   -5.4712   -5.0827 C   0  0  0  0  0  0  0  0  0  0  0  0
    8.6010   -5.3613   -6.0003 C   0  0  0  0  0  0  0  0  0  0  0  0
    8.8417   -6.3505   -6.9590 C   0  0  0  0  0  0  0  0  0  0  0  0
   10.0239   -6.2585   -7.7350 N   0  0  0  0  0  0  0  0  0  0  0  0
   11.0962   -6.0259   -7.0209 C   0  0  0  0  0  0  0  0  0  0  0  0
   11.4139   -6.6473   -5.6323 C   0  0  0  0  0  0  0  0  0  0  0  0
   11.2648   -7.8067   -5.3176 O   0  0  0  0  0  0  0  0  0  0  0  0
   11.8114   -5.5908   -4.8384 N   0  0  0  0  0  0  0  0  0  0  0  0
   11.7972   -4.4043   -5.5663 C   0  0  0  0  0  0  0  0  0  0  0  0
   11.6470   -3.1374   -5.0361 C   0  0  0  0  0  0  0  0  0  0  0  0
   11.3391   -2.1007   -5.9279 C   0  0  0  0  0  0  0  0  0  0  0  0
   11.2545   -2.3377   -7.3158 C   0  0  0  0  0  0  0  0  0  0  0  0
   10.8502   -1.0369   -8.3685 Cl  0  0  0  0  0  0  0  0  0  0  0  0
   11.3871   -3.6208   -7.8410 C   0  0  0  0  0  0  0  0  0  0  0  0
   11.6287   -4.6442   -6.9386 C   0  0  0  0  0  0  0  0  0  0  0  0
    7.8855   -7.3516   -7.1159 C   0  0  0  0  0  0  0  0  0  0  0  0
    6.7661   -7.4059   -6.2566 C   0  0  0  0  0  0  0  0  0  0  0  0
    2.1999   -4.0035   -1.9811 C   0  0  0  0  0  0  0  0  0  0  0  0
    1.3916   -2.9038   -1.6685 C   0  0  0  0  0  0  0  0  0  0  0  0
   -0.7379    0.3420   -3.7198 H   0  0  0  0  0  0  0  0  0  0  0  0
   -1.5618   -0.7035   -2.6433 H   0  0  0  0  0  0  0  0  0  0  0  0
    2.7101   -0.6364   -3.8596 H   0  0  0  0  0  0  0  0  0  0  0  0
    4.0867   -2.5086   -4.3993 H   0  0  0  0  0  0  0  0  0  0  0  0
    3.7860   -5.8914   -2.7385 H   0  0  0  0  0  0  0  0  0  0  0  0
    4.8166   -7.1445   -4.4604 H   0  0  0  0  0  0  0  0  0  0  0  0
    7.5200   -4.7206   -4.3000 H   0  0  0  0  0  0  0  0  0  0  0  0
    9.2052   -4.4689   -5.9372 H   0  0  0  0  0  0  0  0  0  0  0  0
   11.8907   -5.6774   -3.8349 H   0  0  0  0  0  0  0  0  0  0  0  0
   11.6081   -2.9665   -3.9643 H   0  0  0  0  0  0  0  0  0  0  0  0
   11.0935   -1.1141   -5.5363 H   0  0  0  0  0  0  0  0  0  0  0  0
   11.1808   -3.8375   -8.8829 H   0  0  0  0  0  0  0  0  0  0  0  0
    7.9893   -8.0691   -7.9247 H   0  0  0  0  0  0  0  0  0  0  0  0
    5.9961   -8.1485   -6.4378 H   0  0  0  0  0  0  0  0  0  0  0  0
    2.0480   -4.9347   -1.4419 H   0  0  0  0  0  0  0  0  0  0  0  0
    0.6338   -2.9912   -0.8953 H   0  0  0  0  0  0  0  0  0  0  0  0
  1  2  1  0  0  0  0
  1 33  1  0  0  0  0
  1 34  1  0  0  0  0
  2  3  2  0  0  0  0
  2  4  2  0  0  0  0
  2  5  1  0  0  0  0
  5  6  1  0  0  0  0
  5 32  2  0  0  0  0
  6  7  2  0  0  0  0
  6 35  1  0  0  0  0
  7  8  1  0  0  0  0
  7 36  1  0  0  0  0
  8  9  1  0  0  0  0
  8 31  2  0  0  0  0
  9 10  1  0  0  0  0
  9 37  1  0  0  0  0
 10 11  2  0  0  0  0
 10 12  1  0  0  0  0
 12 13  1  0  0  0  0
 12 38  1  0  0  0  0
 13 14  1  0  0  0  0
 13 30  2  0  0  0  0
 14 15  2  0  0  0  0
 14 39  1  0  0  0  0
 15 16  1  0  0  0  0
 15 40  1  0  0  0  0
 16 17  1  0  0  0  0
 16 29  2  0  0  0  0
 17 18  2  0  0  0  0
 18 19  1  0  0  0  0
 18 28  1  0  0  0  0
 19 20  2  0  0  0  0
 19 21  1  0  0  0  0
 21 22  1  0  0  0  0
 21 41  1  0  0  0  0
 22 23  1  0  0  0  0
 22 28  2  0  0  0  0
 23 24  2  0  0  0  0
 23 42  1  0  0  0  0
 24 25  1  0  0  0  0
 24 43  1  0  0  0  0
 25 26  1  0  0  0  0
 25 27  2  0  0  0  0
 27 28  1  0  0  0  0
 27 44  1  0  0  0  0
 29 30  1  0  0  0  0
 29 45  1  0  0  0  0
 30 46  1  0  0  0  0
 31 32  1  0  0  0  0
 31 47  1  0  0  0  0
 32 48  1  0  0  0  0
M  END
$$$$
