CHEMBL1982711
 OpenBabel04072215363D

 29 31  0  0  0  0  0  0  0  0999 V2000
    0.9956   -0.0058    0.1786 N   0  0  0  0  0  0  0  0  0  0  0  0
    2.3429    0.0481   -0.0325 C   0  0  0  0  0  0  0  0  0  0  0  0
    2.9022   -0.7789   -0.7444 O   0  0  0  0  0  0  0  0  0  0  0  0
    3.0891    1.1682    0.5991 C   0  0  0  0  0  0  0  0  0  0  0  0
    2.6198    1.8220    1.7414 C   0  0  0  0  0  0  0  0  0  0  0  0
    3.3536    2.8797    2.2927 C   0  0  0  0  0  0  0  0  0  0  0  0
    4.5822    3.2791    1.7387 C   0  0  0  0  0  0  0  0  0  0  0  0
    5.3579    4.3691    2.3356 C   0  0  0  0  0  0  0  0  0  0  0  0
    5.3552    4.5680    3.7106 C   0  0  0  0  0  0  0  0  0  0  0  0
    6.2044    5.5952    4.0069 N   0  0  0  0  0  0  0  0  0  0  0  0
    6.7832    6.0578    2.8640 C   0  0  0  0  0  0  0  0  0  0  0  0
    7.6992    7.0442    2.8593 N   0  0  0  0  0  0  0  0  0  0  0  0
    8.1450    7.3667    1.6297 C   0  0  0  0  0  0  0  0  0  0  0  0
    7.7074    6.8000    0.4505 C   0  0  0  0  0  0  0  0  0  0  0  0
    6.7338    5.8082    0.5257 C   0  0  0  0  0  0  0  0  0  0  0  0
    6.0513    5.2015   -0.9162 Cl  0  0  0  0  0  0  0  0  0  0  0  0
    6.2551    5.3577    1.7752 C   0  0  0  0  0  0  0  0  0  0  0  0
    5.0689    2.5630    0.6409 C   0  0  0  0  0  0  0  0  0  0  0  0
    4.3173    1.5415    0.0518 C   0  0  0  0  0  0  0  0  0  0  0  0
    0.4905   -0.7084   -0.3494 H   0  0  0  0  0  0  0  0  0  0  0  0
    0.4664    0.7821    0.5276 H   0  0  0  0  0  0  0  0  0  0  0  0
    1.7032    1.5083    2.2317 H   0  0  0  0  0  0  0  0  0  0  0  0
    2.9554    3.3748    3.1755 H   0  0  0  0  0  0  0  0  0  0  0  0
    4.8373    4.0542    4.5104 H   0  0  0  0  0  0  0  0  0  0  0  0
    6.4088    5.9640    4.9244 H   0  0  0  0  0  0  0  0  0  0  0  0
    8.8972    8.1519    1.6128 H   0  0  0  0  0  0  0  0  0  0  0  0
    8.1001    7.1345   -0.5026 H   0  0  0  0  0  0  0  0  0  0  0  0
    6.0501    2.7747    0.2271 H   0  0  0  0  0  0  0  0  0  0  0  0
    4.7022    1.0342   -0.8308 H   0  0  0  0  0  0  0  0  0  0  0  0
  1  2  1  0  0  0  0
  1 20  1  0  0  0  0
  1 21  1  0  0  0  0
  2  3  2  0  0  0  0
  2  4  1  0  0  0  0
  4  5  1  0  0  0  0
  4 19  2  0  0  0  0
  5  6  2  0  0  0  0
  5 22  1  0  0  0  0
  6  7  1  0  0  0  0
  6 23  1  0  0  0  0
  7  8  1  0  0  0  0
  7 18  2  0  0  0  0
  8  9  2  0  0  0  0
  8 17  1  0  0  0  0
  9 10  1  0  0  0  0
  9 24  1  0  0  0  0
 10 11  1  0  0  0  0
 10 25  1  0  0  0  0
 11 12  1  0  0  0  0
 11 17  2  0  0  0  0
 12 13  2  0  0  0  0
 13 14  1  0  0  0  0
 13 26  1  0  0  0  0
 14 15  2  0  0  0  0
 14 27  1  0  0  0  0
 15 16  1  0  0  0  0
 15 17  1  0  0  0  0
 18 19  1  0  0  0  0
 18 28  1  0  0  0  0
 19 29  1  0  0  0  0
M  END
$$$$
