CHEMBL491680
 OpenBabel04072215383D

 42 45  0  0  0  0  0  0  0  0999 V2000
   -0.6575    0.8553   -3.9026 Cl  0  0  0  0  0  0  0  0  0  0  0  0
    0.7193    0.6161   -2.9002 C   0  0  0  0  0  0  0  0  0  0  0  0
    1.7098    1.5956   -2.8406 C   0  0  0  0  0  0  0  0  0  0  0  0
    2.8230    1.4182   -2.0124 C   0  0  0  0  0  0  0  0  0  0  0  0
    2.9424    0.2536   -1.2413 C   0  0  0  0  0  0  0  0  0  0  0  0
    4.0529    0.0611   -0.3793 N   0  0  0  0  0  0  0  0  0  0  0  0
    5.0873    0.9242   -0.0940 C   0  0  0  0  0  0  0  0  0  0  0  0
    5.9188    0.2167    0.7439 C   0  0  0  0  0  0  0  0  0  0  0  0
    7.1700    0.6459    1.3557 C   0  0  0  0  0  0  0  0  0  0  0  0
    7.4132    0.1612    2.6607 C   0  0  0  0  0  0  0  0  0  0  0  0
    8.5896    0.4620    3.3416 C   0  0  0  0  0  0  0  0  0  0  0  0
    9.5368    1.2696    2.7334 C   0  0  0  0  0  0  0  0  0  0  0  0
    9.3073    1.7705    1.4488 C   0  0  0  0  0  0  0  0  0  0  0  0
    8.1522    1.4419    0.7096 C   0  0  0  0  0  0  0  0  0  0  0  0
    7.9478    1.9943   -0.5769 N   0  0  0  0  0  0  0  0  0  0  0  0
    9.1207    2.2403   -1.4125 C   0  0  0  0  0  0  0  0  0  0  0  0
    8.6801    2.7852   -2.7490 C   0  0  0  0  0  0  0  0  0  0  0  0
    8.0929    4.0519   -2.8400 C   0  0  0  0  0  0  0  0  0  0  0  0
    7.7295    4.5280   -4.0891 C   0  0  0  0  0  0  0  0  0  0  0  0
    7.9053    3.8368   -5.2351 N   0  0  0  0  0  0  0  0  0  0  0  0
    8.4728    2.6167   -5.1271 C   0  0  0  0  0  0  0  0  0  0  0  0
    8.8686    2.0536   -3.9254 C   0  0  0  0  0  0  0  0  0  0  0  0
    5.3573   -1.0087    0.9896 N   0  0  0  0  0  0  0  0  0  0  0  0
    4.2239   -1.0921    0.3099 N   0  0  0  0  0  0  0  0  0  0  0  0
    1.9492   -0.7371   -1.3241 C   0  0  0  0  0  0  0  0  0  0  0  0
    0.8372   -0.5513   -2.1502 C   0  0  0  0  0  0  0  0  0  0  0  0
    1.6211    2.5016   -3.4351 H   0  0  0  0  0  0  0  0  0  0  0  0
    3.5756    2.2013   -2.0002 H   0  0  0  0  0  0  0  0  0  0  0  0
    5.1396    1.9281   -0.4834 H   0  0  0  0  0  0  0  0  0  0  0  0
    6.6707   -0.4630    3.1587 H   0  0  0  0  0  0  0  0  0  0  0  0
    8.7563    0.0715    4.3423 H   0  0  0  0  0  0  0  0  0  0  0  0
   10.4553    1.5192    3.2586 H   0  0  0  0  0  0  0  0  0  0  0  0
   10.0716    2.4245    1.0405 H   0  0  0  0  0  0  0  0  0  0  0  0
    7.2693    1.4460   -1.0975 H   0  0  0  0  0  0  0  0  0  0  0  0
    9.6764    1.3049   -1.5525 H   0  0  0  0  0  0  0  0  0  0  0  0
    9.8003    2.9768   -0.9701 H   0  0  0  0  0  0  0  0  0  0  0  0
    7.9264    4.6568   -1.9538 H   0  0  0  0  0  0  0  0  0  0  0  0
    7.2775    5.5086   -4.2051 H   0  0  0  0  0  0  0  0  0  0  0  0
    8.6089    2.0846   -6.0640 H   0  0  0  0  0  0  0  0  0  0  0  0
    9.3237    1.0679   -3.9122 H   0  0  0  0  0  0  0  0  0  0  0  0
    2.0180   -1.6572   -0.7449 H   0  0  0  0  0  0  0  0  0  0  0  0
    0.0681   -1.3181   -2.1995 H   0  0  0  0  0  0  0  0  0  0  0  0
  1  2  1  0  0  0  0
  2  3  1  0  0  0  0
  2 26  2  0  0  0  0
  3  4  2  0  0  0  0
  3 27  1  0  0  0  0
  4  5  1  0  0  0  0
  4 28  1  0  0  0  0
  5  6  1  0  0  0  0
  5 25  2  0  0  0  0
  6  7  1  0  0  0  0
  6 24  1  0  0  0  0
  7  8  2  0  0  0  0
  7 29  1  0  0  0  0
  8  9  1  0  0  0  0
  8 23  1  0  0  0  0
  9 10  1  0  0  0  0
  9 14  2  0  0  0  0
 10 11  2  0  0  0  0
 10 30  1  0  0  0  0
 11 12  1  0  0  0  0
 11 31  1  0  0  0  0
 12 13  2  0  0  0  0
 12 32  1  0  0  0  0
 13 14  1  0  0  0  0
 13 33  1  0  0  0  0
 14 15  1  0  0  0  0
 15 16  1  0  0  0  0
 15 34  1  0  0  0  0
 16 17  1  0  0  0  0
 16 35  1  0  0  0  0
 16 36  1  0  0  0  0
 17 18  1  0  0  0  0
 17 22  2  0  0  0  0
 18 19  2  0  0  0  0
 18 37  1  0  0  0  0
 19 20  1  0  0  0  0
 19 38  1  0  0  0  0
 20 21  2  0  0  0  0
 21 22  1  0  0  0  0
 21 39  1  0  0  0  0
 22 40  1  0  0  0  0
 23 24  2  0  0  0  0
 25 26  1  0  0  0  0
 25 41  1  0  0  0  0
 26 42  1  0  0  0  0
M  END
$$$$
