CHEMBL3690420
 OpenBabel04072215373D

 54 56  0  0  1  0  0  0  0  0999 V2000
    1.3732    0.7589    2.0500 C   0  0  0  0  0  0  0  0  0  0  0  0
    2.8250    0.6453    1.9378 N   0  0  0  0  0  0  0  0  0  0  0  0
    3.2138   -0.3256    1.1815 C   0  0  0  0  0  0  0  0  0  0  0  0
    4.6826   -0.6374    0.9654 C   0  0  3  0  0  0  0  0  0  0  0  0
    5.6242    0.5755    1.0127 C   0  0  0  0  0  0  0  0  0  0  0  0
    5.3881    1.6485    1.7097 N   0  0  0  0  0  0  0  0  0  0  0  0
    6.9424    0.4985    0.2531 C   0  0  0  0  0  0  0  0  0  0  0  0
    7.9897    0.0668    1.1765 N   0  0  0  0  0  0  0  0  0  0  0  0
    5.0412   -1.7222    1.9696 C   0  0  0  0  0  0  0  0  0  0  0  0
    4.8854   -3.1189    1.5407 C   0  0  0  0  0  0  0  0  0  0  0  0
    5.1478   -4.1192    2.4017 C   0  0  0  0  0  0  0  0  0  0  0  0
    5.5783   -3.8263    3.6989 N   0  0  0  0  0  0  0  0  0  0  0  0
    5.8920   -4.6518    4.7756 C   0  0  0  0  0  0  0  0  0  0  0  0
    5.7631   -6.1123    4.8833 C   0  0  0  0  0  0  0  0  0  0  0  0
    6.7186   -6.8139    5.6380 C   0  0  0  0  0  0  0  0  0  0  0  0
    6.5988   -8.1831    5.8523 C   0  0  0  0  0  0  0  0  0  0  0  0
    5.5192   -8.8780    5.3185 C   0  0  0  0  0  0  0  0  0  0  0  0
    4.5403   -8.2184    4.5719 C   0  0  0  0  0  0  0  0  0  0  0  0
    3.4110   -8.8818    4.0304 N   0  0  0  0  0  0  0  0  0  0  0  0
    3.0865  -10.2123    4.2027 C   0  0  0  0  0  0  0  0  0  0  0  0
    3.6902  -11.0416    4.8628 O   0  0  0  0  0  0  0  0  0  0  0  0
    1.9637  -10.5747    3.4868 N   0  0  0  0  0  0  0  0  0  0  0  0
    1.4941  -11.9634    3.6055 C   0  0  0  0  0  0  0  0  0  0  0  0
    0.6946  -12.2974    4.8740 C   0  0  0  0  0  0  0  0  0  0  0  0
    0.3787  -11.1869    5.5797 F   0  0  0  0  0  0  0  0  0  0  0  0
   -0.4791  -12.8888    4.5339 F   0  0  0  0  0  0  0  0  0  0  0  0
    1.3483  -13.1474    5.6915 F   0  0  0  0  0  0  0  0  0  0  0  0
    4.6720   -6.8324    4.3590 C   0  0  0  0  0  0  0  0  0  0  0  0
    6.3830   -3.7683    5.7304 C   0  0  0  0  0  0  0  0  0  0  0  0
    6.2991   -2.4668    5.3330 N   0  0  0  0  0  0  0  0  0  0  0  0
    5.7955   -2.5146    4.1221 C   0  0  0  0  0  0  0  0  0  0  0  0
    5.4791   -1.4593    3.2221 C   0  0  0  0  0  0  0  0  0  0  0  0
    1.1338    1.4566    2.8588 H   0  0  0  0  0  0  0  0  0  0  0  0
    0.9070   -0.2018    2.2935 H   0  0  0  0  0  0  0  0  0  0  0  0
    0.9411    1.1538    1.1257 H   0  0  0  0  0  0  0  0  0  0  0  0
    2.4939   -1.0031    0.6866 H   0  0  0  0  0  0  0  0  0  0  0  0
    4.7608   -1.0353   -0.0551 H   0  0  0  0  0  0  0  0  0  0  0  0
    4.4547    1.5634    2.1615 H   0  0  0  0  0  0  0  0  0  0  0  0
    7.1786    1.4950   -0.1362 H   0  0  0  0  0  0  0  0  0  0  0  0
    6.8610   -0.1929   -0.5889 H   0  0  0  0  0  0  0  0  0  0  0  0
    7.9214    0.6530    2.0148 H   0  0  0  0  0  0  0  0  0  0  0  0
    8.8988    0.2898    0.7734 H   0  0  0  0  0  0  0  0  0  0  0  0
    4.5643   -3.3349    0.5265 H   0  0  0  0  0  0  0  0  0  0  0  0
    5.0618   -5.1596    2.1209 H   0  0  0  0  0  0  0  0  0  0  0  0
    7.5665   -6.2981    6.0839 H   0  0  0  0  0  0  0  0  0  0  0  0
    7.3380   -8.7115    6.4487 H   0  0  0  0  0  0  0  0  0  0  0  0
    5.4763   -9.9439    5.5132 H   0  0  0  0  0  0  0  0  0  0  0  0
    2.7865   -8.3309    3.4619 H   0  0  0  0  0  0  0  0  0  0  0  0
    1.2541   -9.8664    3.3737 H   0  0  0  0  0  0  0  0  0  0  0  0
    2.3612  -12.6331    3.5440 H   0  0  0  0  0  0  0  0  0  0  0  0
    0.8791  -12.1543    2.7203 H   0  0  0  0  0  0  0  0  0  0  0  0
    3.8938   -6.3021    3.8161 H   0  0  0  0  0  0  0  0  0  0  0  0
    6.7751   -4.0156    6.7087 H   0  0  0  0  0  0  0  0  0  0  0  0
    5.6032   -0.4456    3.5909 H   0  0  0  0  0  0  0  0  0  0  0  0
  1  2  1  0  0  0  0
  1 33  1  0  0  0  0
  1 34  1  0  0  0  0
  1 35  1  0  0  0  0
  2  3  2  0  0  0  0
  3  4  1  0  0  0  0
  3 36  1  0  0  0  0
  4  5  1  0  0  0  0
  4  9  1  0  0  0  0
  4 37  1  0  0  0  0
  5  6  2  0  0  0  0
  5  7  1  0  0  0  0
  6 38  1  0  0  0  0
  7  8  1  0  0  0  0
  7 39  1  0  0  0  0
  7 40  1  0  0  0  0
  8 41  1  0  0  0  0
  8 42  1  0  0  0  0
  9 10  1  0  0  0  0
  9 32  2  0  0  0  0
 10 11  2  0  0  0  0
 10 43  1  0  0  0  0
 11 12  1  0  0  0  0
 11 44  1  0  0  0  0
 12 13  1  0  0  0  0
 12 31  1  0  0  0  0
 13 14  1  0  0  0  0
 13 29  2  0  0  0  0
 14 15  1  0  0  0  0
 14 28  2  0  0  0  0
 15 16  2  0  0  0  0
 15 45  1  0  0  0  0
 16 17  1  0  0  0  0
 16 46  1  0  0  0  0
 17 18  2  0  0  0  0
 17 47  1  0  0  0  0
 18 19  1  0  0  0  0
 18 28  1  0  0  0  0
 19 20  1  0  0  0  0
 19 48  1  0  0  0  0
 20 21  2  0  0  0  0
 20 22  1  0  0  0  0
 22 23  1  0  0  0  0
 22 49  1  0  0  0  0
 23 24  1  0  0  0  0
 23 50  1  0  0  0  0
 23 51  1  0  0  0  0
 24 25  1  0  0  0  0
 24 26  1  0  0  0  0
 24 27  1  0  0  0  0
 28 52  1  0  0  0  0
 29 30  1  0  0  0  0
 29 53  1  0  0  0  0
 30 31  2  0  0  0  0
 31 32  1  0  0  0  0
 32 54  1  0  0  0  0
M  END
$$$$
