CHEMBL4515673
 OpenBabel04072215383D

 61 64  0  0  0  0  0  0  0  0999 V2000
    3.3561    0.6539    1.0875 C   0  0  0  0  0  0  0  0  0  0  0  0
    2.5117    0.3196   -0.0120 O   0  0  0  0  0  0  0  0  0  0  0  0
    3.0860   -0.3957   -1.0252 C   0  0  0  0  0  0  0  0  0  0  0  0
    4.0308   -1.3813   -0.7384 C   0  0  0  0  0  0  0  0  0  0  0  0
    4.6713   -2.1036   -1.7617 C   0  0  0  0  0  0  0  0  0  0  0  0
    5.6869   -3.0459   -1.5339 C   0  0  0  0  0  0  0  0  0  0  0  0
    6.0726   -3.3515   -0.1970 N   0  0  0  0  0  0  0  0  0  0  0  0
    7.2950   -3.9788    0.1536 C   0  0  0  0  0  0  0  0  0  0  0  0
    8.4985   -3.5180   -0.4051 C   0  0  0  0  0  0  0  0  0  0  0  0
    9.7056   -4.1572   -0.1293 C   0  0  0  0  0  0  0  0  0  0  0  0
    9.7179   -5.2500    0.7265 C   0  0  0  0  0  0  0  0  0  0  0  0
   10.8728   -5.8858    0.9612 F   0  0  0  0  0  0  0  0  0  0  0  0
    8.5546   -5.6950    1.3417 C   0  0  0  0  0  0  0  0  0  0  0  0
    7.3478   -5.0515    1.0636 C   0  0  0  0  0  0  0  0  0  0  0  0
    5.9109   -5.6213    1.8390 Cl  0  0  0  0  0  0  0  0  0  0  0  0
    6.3129   -3.6719   -2.5440 N   0  0  0  0  0  0  0  0  0  0  0  0
    5.9020   -3.3683   -3.7799 C   0  0  0  0  0  0  0  0  0  0  0  0
    4.9309   -2.5051   -4.1081 N   0  0  0  0  0  0  0  0  0  0  0  0
    4.3300   -1.8656   -3.0980 C   0  0  0  0  0  0  0  0  0  0  0  0
    3.3370   -0.9250   -3.3689 C   0  0  0  0  0  0  0  0  0  0  0  0
    2.7036   -0.1767   -2.3598 C   0  0  0  0  0  0  0  0  0  0  0  0
    1.7714    0.7237   -2.8420 O   0  0  0  0  0  0  0  0  0  0  0  0
    1.1179    1.5420   -1.8728 C   0  0  0  0  0  0  0  0  0  0  0  0
    0.1505    2.5550   -2.4812 C   0  0  0  0  0  0  0  0  0  0  0  0
   -0.4084    3.2910   -1.3845 O   0  0  0  0  0  0  0  0  0  0  0  0
   -1.3093    4.3134   -1.7934 C   0  0  0  0  0  0  0  0  0  0  0  0
   -1.8323    5.0320   -0.5449 C   0  0  0  0  0  0  0  0  0  0  0  0
   -2.7915    6.0764   -0.8605 N   0  0  0  0  0  0  0  0  0  0  0  0
   -2.3802    7.3553   -1.1754 C   0  0  0  0  0  0  0  0  0  0  0  0
   -1.2076    7.7084   -1.1464 O   0  0  0  0  0  0  0  0  0  0  0  0
   -3.4909    8.3108   -1.5448 C   0  0  0  0  0  0  0  0  0  0  0  0
   -3.2714    8.8480   -2.8681 N   0  0  0  0  0  0  0  0  0  0  0  0
   -2.5908    9.9787   -3.2073 C   0  0  0  0  0  0  0  0  0  0  0  0
   -2.6317   10.1492   -4.5100 N   0  0  0  0  0  0  0  0  0  0  0  0
   -3.3597    9.0603   -4.9309 C   0  0  0  0  0  0  0  0  0  0  0  0
   -3.6427    8.7903   -6.3341 N   0  3  0  0  0  0  0  0  0  0  0  0
   -3.1881    9.5890   -7.1680 O   0  0  0  0  0  0  0  0  0  0  0  0
   -4.3153    7.7824   -6.6074 O   0  5  0  0  0  0  0  0  0  0  0  0
   -3.7979    8.2433   -3.9542 N   0  0  0  0  0  0  0  0  0  0  0  0
    3.1304    1.6819    1.3833 H   0  0  0  0  0  0  0  0  0  0  0  0
    4.4260    0.6126    0.8531 H   0  0  0  0  0  0  0  0  0  0  0  0
    3.1249   -0.0099    1.9254 H   0  0  0  0  0  0  0  0  0  0  0  0
    4.3075   -1.5758    0.2940 H   0  0  0  0  0  0  0  0  0  0  0  0
    5.2851   -3.7845    0.2836 H   0  0  0  0  0  0  0  0  0  0  0  0
    8.4912   -2.6627   -1.0772 H   0  0  0  0  0  0  0  0  0  0  0  0
   10.6270   -3.8158   -0.5896 H   0  0  0  0  0  0  0  0  0  0  0  0
    8.6014   -6.5429    2.0166 H   0  0  0  0  0  0  0  0  0  0  0  0
    6.4057   -3.8741   -4.5963 H   0  0  0  0  0  0  0  0  0  0  0  0
    3.0598   -0.7486   -4.4067 H   0  0  0  0  0  0  0  0  0  0  0  0
    1.8618    2.1233   -1.3161 H   0  0  0  0  0  0  0  0  0  0  0  0
    0.5383    0.9118   -1.1873 H   0  0  0  0  0  0  0  0  0  0  0  0
   -0.6444    2.0493   -3.0405 H   0  0  0  0  0  0  0  0  0  0  0  0
    0.6788    3.2303   -3.1641 H   0  0  0  0  0  0  0  0  0  0  0  0
   -2.1469    3.8625   -2.3371 H   0  0  0  0  0  0  0  0  0  0  0  0
   -0.7979    5.0206   -2.4549 H   0  0  0  0  0  0  0  0  0  0  0  0
   -0.9961    5.4596    0.0218 H   0  0  0  0  0  0  0  0  0  0  0  0
   -2.3307    4.3198    0.1225 H   0  0  0  0  0  0  0  0  0  0  0  0
   -3.7411    5.7880   -1.0660 H   0  0  0  0  0  0  0  0  0  0  0  0
   -3.5034    9.1391   -0.8288 H   0  0  0  0  0  0  0  0  0  0  0  0
   -4.4727    7.8276   -1.5290 H   0  0  0  0  0  0  0  0  0  0  0  0
   -2.0929   10.6168   -2.4884 H   0  0  0  0  0  0  0  0  0  0  0  0
  1  2  1  0  0  0  0
  1 40  1  0  0  0  0
  1 41  1  0  0  0  0
  1 42  1  0  0  0  0
  2  3  1  0  0  0  0
  3  4  1  0  0  0  0
  3 21  2  0  0  0  0
  4  5  2  0  0  0  0
  4 43  1  0  0  0  0
  5  6  1  0  0  0  0
  5 19  1  0  0  0  0
  6  7  1  0  0  0  0
  6 16  2  0  0  0  0
  7  8  1  0  0  0  0
  7 44  1  0  0  0  0
  8  9  1  0  0  0  0
  8 14  2  0  0  0  0
  9 10  2  0  0  0  0
  9 45  1  0  0  0  0
 10 11  1  0  0  0  0
 10 46  1  0  0  0  0
 11 12  1  0  0  0  0
 11 13  2  0  0  0  0
 13 14  1  0  0  0  0
 13 47  1  0  0  0  0
 14 15  1  0  0  0  0
 16 17  1  0  0  0  0
 17 18  2  0  0  0  0
 17 48  1  0  0  0  0
 18 19  1  0  0  0  0
 19 20  2  0  0  0  0
 20 21  1  0  0  0  0
 20 49  1  0  0  0  0
 21 22  1  0  0  0  0
 22 23  1  0  0  0  0
 23 24  1  0  0  0  0
 23 50  1  0  0  0  0
 23 51  1  0  0  0  0
 24 25  1  0  0  0  0
 24 52  1  0  0  0  0
 24 53  1  0  0  0  0
 25 26  1  0  0  0  0
 26 27  1  0  0  0  0
 26 54  1  0  0  0  0
 26 55  1  0  0  0  0
 27 28  1  0  0  0  0
 27 56  1  0  0  0  0
 27 57  1  0  0  0  0
 28 29  1  0  0  0  0
 28 58  1  0  0  0  0
 29 30  2  0  0  0  0
 29 31  1  0  0  0  0
 31 32  1  0  0  0  0
 31 59  1  0  0  0  0
 31 60  1  0  0  0  0
 32 33  1  0  0  0  0
 32 39  1  0  0  0  0
 33 34  2  0  0  0  0
 33 61  1  0  0  0  0
 34 35  1  0  0  0  0
 35 36  1  0  0  0  0
 35 39  2  0  0  0  0
 36 37  2  0  0  0  0
 36 38  1  0  0  0  0
M  CHG  2  36   1  38  -1
M  END
$$$$
