CHEMBL193747
 OpenBabel04072215363D

 53 56  0  0  0  0  0  0  0  0999 V2000
    1.2270   -0.2936    0.2589 O   0  0  0  0  0  0  0  0  0  0  0  0
    2.3664   -0.0095   -0.0814 C   0  0  0  0  0  0  0  0  0  0  0  0
    2.9847   -0.5454   -1.1913 N   0  0  0  0  0  0  0  0  0  0  0  0
    2.3295   -1.5851   -1.9736 C   0  0  0  0  0  0  0  0  0  0  0  0
    1.4039   -1.0058   -3.0397 C   0  0  0  0  0  0  0  0  0  0  0  0
    2.1597   -0.2208   -3.9614 O   0  0  0  0  0  0  0  0  0  0  0  0
    3.1803    0.9243    0.7406 C   0  0  0  0  0  0  0  0  0  0  0  0
    3.0560    0.8447    2.1256 C   0  0  0  0  0  0  0  0  0  0  0  0
    3.7632    1.7269    2.9478 C   0  0  0  0  0  0  0  0  0  0  0  0
    4.5330    2.7855    2.4267 C   0  0  0  0  0  0  0  0  0  0  0  0
    5.1758    3.8130    3.3049 C   0  0  0  0  0  0  0  0  0  0  0  0
    6.3437    4.3017    2.8327 N   0  0  0  0  0  0  0  0  0  0  0  0
    7.0928    5.1962    3.5713 N   0  0  0  0  0  0  0  0  0  0  0  0
    6.7185    5.5645    4.8142 C   0  0  0  0  0  0  0  0  0  0  0  0
    7.5282    6.4661    5.5765 N   0  0  0  0  0  0  0  0  0  0  0  0
    8.4520    7.4027    5.0394 C   0  0  0  0  0  0  0  0  0  0  0  0
    8.2116    8.0969    3.8489 C   0  0  0  0  0  0  0  0  0  0  0  0
    9.0727    9.1163    3.4168 C   0  0  0  0  0  0  0  0  0  0  0  0
   10.1826    9.4683    4.1813 C   0  0  0  0  0  0  0  0  0  0  0  0
   11.1379   10.3828    3.8458 O   0  0  0  0  0  0  0  0  0  0  0  0
   10.7746   11.4439    2.9707 C   0  0  0  0  0  0  0  0  0  0  0  0
   10.3987   10.9618    1.7615 F   0  0  0  0  0  0  0  0  0  0  0  0
    9.7311   12.1311    3.4976 F   0  0  0  0  0  0  0  0  0  0  0  0
   12.1577   12.5259    2.7594 Cl  0  0  0  0  0  0  0  0  0  0  0  0
   10.4052    8.8077    5.3917 C   0  0  0  0  0  0  0  0  0  0  0  0
    9.5333    7.8049    5.8299 C   0  0  0  0  0  0  0  0  0  0  0  0
    5.5394    5.0298    5.3845 C   0  0  0  0  0  0  0  0  0  0  0  0
    5.1491    5.2722    6.7294 C   0  0  0  0  0  0  0  0  0  0  0  0
    3.9226    4.8440    7.2365 C   0  0  0  0  0  0  0  0  0  0  0  0
    3.0290    4.2068    6.3976 C   0  0  0  0  0  0  0  0  0  0  0  0
    3.4032    3.9267    5.0846 C   0  0  0  0  0  0  0  0  0  0  0  0
    4.6933    4.2343    4.5739 C   0  0  0  0  0  0  0  0  0  0  0  0
    4.6897    2.8060    1.0236 C   0  0  0  0  0  0  0  0  0  0  0  0
    4.0324    1.8829    0.1873 C   0  0  0  0  0  0  0  0  0  0  0  0
    3.9780   -0.4017   -1.3240 H   0  0  0  0  0  0  0  0  0  0  0  0
    1.7637   -2.2409   -1.3002 H   0  0  0  0  0  0  0  0  0  0  0  0
    3.1280   -2.1695   -2.4404 H   0  0  0  0  0  0  0  0  0  0  0  0
    0.6244   -0.3717   -2.6061 H   0  0  0  0  0  0  0  0  0  0  0  0
    0.9233   -1.8126   -3.6005 H   0  0  0  0  0  0  0  0  0  0  0  0
    2.5413    0.5040   -3.4351 H   0  0  0  0  0  0  0  0  0  0  0  0
    2.4083    0.0928    2.5735 H   0  0  0  0  0  0  0  0  0  0  0  0
    3.6833    1.5694    4.0215 H   0  0  0  0  0  0  0  0  0  0  0  0
    6.9009    7.0204    6.1558 H   0  0  0  0  0  0  0  0  0  0  0  0
    7.3479    7.8530    3.2343 H   0  0  0  0  0  0  0  0  0  0  0  0
    8.8444    9.5889    2.4671 H   0  0  0  0  0  0  0  0  0  0  0  0
   11.2606    9.0774    6.0073 H   0  0  0  0  0  0  0  0  0  0  0  0
    9.7175    7.3227    6.7870 H   0  0  0  0  0  0  0  0  0  0  0  0
    5.8119    5.7896    7.4190 H   0  0  0  0  0  0  0  0  0  0  0  0
    3.6604    5.0335    8.2741 H   0  0  0  0  0  0  0  0  0  0  0  0
    2.0467    3.9128    6.7589 H   0  0  0  0  0  0  0  0  0  0  0  0
    2.6484    3.4645    4.4518 H   0  0  0  0  0  0  0  0  0  0  0  0
    5.3277    3.5599    0.5614 H   0  0  0  0  0  0  0  0  0  0  0  0
    4.1638    1.9576   -0.8888 H   0  0  0  0  0  0  0  0  0  0  0  0
  1  2  2  0  0  0  0
  2  3  1  0  0  0  0
  2  7  1  0  0  0  0
  3  4  1  0  0  0  0
  3 35  1  0  0  0  0
  4  5  1  0  0  0  0
  4 36  1  0  0  0  0
  4 37  1  0  0  0  0
  5  6  1  0  0  0  0
  5 38  1  0  0  0  0
  5 39  1  0  0  0  0
  6 40  1  0  0  0  0
  7  8  1  0  0  0  0
  7 34  2  0  0  0  0
  8  9  2  0  0  0  0
  8 41  1  0  0  0  0
  9 10  1  0  0  0  0
  9 42  1  0  0  0  0
 10 11  1  0  0  0  0
 10 33  2  0  0  0  0
 11 12  1  0  0  0  0
 11 32  2  0  0  0  0
 12 13  2  0  0  0  0
 13 14  1  0  0  0  0
 14 15  1  0  0  0  0
 14 27  2  0  0  0  0
 15 16  1  0  0  0  0
 15 43  1  0  0  0  0
 16 17  1  0  0  0  0
 16 26  2  0  0  0  0
 17 18  2  0  0  0  0
 17 44  1  0  0  0  0
 18 19  1  0  0  0  0
 18 45  1  0  0  0  0
 19 20  1  0  0  0  0
 19 25  2  0  0  0  0
 20 21  1  0  0  0  0
 21 22  1  0  0  0  0
 21 23  1  0  0  0  0
 21 24  1  0  0  0  0
 25 26  1  0  0  0  0
 25 46  1  0  0  0  0
 26 47  1  0  0  0  0
 27 28  1  0  0  0  0
 27 32  1  0  0  0  0
 28 29  2  0  0  0  0
 28 48  1  0  0  0  0
 29 30  1  0  0  0  0
 29 49  1  0  0  0  0
 30 31  2  0  0  0  0
 30 50  1  0  0  0  0
 31 32  1  0  0  0  0
 31 51  1  0  0  0  0
 33 34  1  0  0  0  0
 33 52  1  0  0  0  0
 34 53  1  0  0  0  0
M  END
$$$$
