CHEMBL3894725
 OpenBabel04072215373D

 52 55  0  0  0  0  0  0  0  0999 V2000
    2.5609    2.4021   -2.2261 O   0  0  0  0  0  0  0  0  0  0  0  0
    2.1512    1.5692   -1.4288 C   0  0  0  0  0  0  0  0  0  0  0  0
    0.8462    1.5003   -0.9624 N   0  0  0  0  0  0  0  0  0  0  0  0
   -0.1734    2.4220   -1.2945 C   0  0  0  0  0  0  0  0  0  0  0  0
   -0.0969    3.2846   -2.3884 C   0  0  0  0  0  0  0  0  0  0  0  0
   -1.0780    4.2517   -2.6064 C   0  0  0  0  0  0  0  0  0  0  0  0
   -2.1707    4.3639   -1.7463 C   0  0  0  0  0  0  0  0  0  0  0  0
   -3.2910    5.6262   -2.0963 Cl  0  0  0  0  0  0  0  0  0  0  0  0
   -2.3042    3.4825   -0.6689 C   0  0  0  0  0  0  0  0  0  0  0  0
   -3.4461    3.5132    0.3126 C   0  0  0  0  0  0  0  0  0  0  0  0
   -4.3379    4.5280    0.1830 F   0  0  0  0  0  0  0  0  0  0  0  0
   -4.1842    2.3670    0.2605 F   0  0  0  0  0  0  0  0  0  0  0  0
   -2.9969    3.5917    1.5999 F   0  0  0  0  0  0  0  0  0  0  0  0
   -1.2998    2.4998   -0.4687 C   0  0  0  0  0  0  0  0  0  0  0  0
    2.9596    0.6089   -0.8499 N   0  0  0  0  0  0  0  0  0  0  0  0
    4.3743    0.5915   -0.9239 C   0  0  0  0  0  0  0  0  0  0  0  0
    5.1440    1.7019   -1.2856 C   0  0  0  0  0  0  0  0  0  0  0  0
    6.5394    1.6176   -1.3396 C   0  0  0  0  0  0  0  0  0  0  0  0
    7.1850    0.4239   -1.0210 C   0  0  0  0  0  0  0  0  0  0  0  0
    8.5614    0.4395   -1.1025 O   0  0  0  0  0  0  0  0  0  0  0  0
    9.2261   -0.7066   -1.4786 C   0  0  0  0  0  0  0  0  0  0  0  0
    8.7138   -1.6292   -2.3837 C   0  0  0  0  0  0  0  0  0  0  0  0
    9.4458   -2.7708   -2.6125 C   0  0  0  0  0  0  0  0  0  0  0  0
   10.6514   -2.9987   -2.0619 N   0  0  0  0  0  0  0  0  0  0  0  0
   11.1857   -2.0648   -1.2568 C   0  0  0  0  0  0  0  0  0  0  0  0
   12.4669   -2.2627   -0.7173 N   0  0  0  0  0  0  0  0  0  0  0  0
   13.2276   -3.3966   -0.9285 C   0  0  0  0  0  0  0  0  0  0  0  0
   12.9187   -4.3889   -1.5744 O   0  0  0  0  0  0  0  0  0  0  0  0
   14.5711   -3.4204   -0.2750 C   0  0  0  0  0  0  0  0  0  0  0  0
   14.6562   -3.4200    1.2325 C   0  0  0  0  0  0  0  0  0  0  0  0
   15.2541   -2.2899    0.4438 C   0  0  0  0  0  0  0  0  0  0  0  0
   10.5006   -0.8986   -0.9393 C   0  0  0  0  0  0  0  0  0  0  0  0
    6.4303   -0.6725   -0.5954 C   0  0  0  0  0  0  0  0  0  0  0  0
    5.0395   -0.5862   -0.5750 C   0  0  0  0  0  0  0  0  0  0  0  0
    4.3275   -1.6698   -0.2263 F   0  0  0  0  0  0  0  0  0  0  0  0
    0.6967    0.9230   -0.1466 H   0  0  0  0  0  0  0  0  0  0  0  0
    0.7240    3.2426   -3.0979 H   0  0  0  0  0  0  0  0  0  0  0  0
   -0.9650    4.9277   -3.4522 H   0  0  0  0  0  0  0  0  0  0  0  0
   -1.3999    1.8194    0.3772 H   0  0  0  0  0  0  0  0  0  0  0  0
    2.5228   -0.2496   -0.5388 H   0  0  0  0  0  0  0  0  0  0  0  0
    4.6882    2.6594   -1.5247 H   0  0  0  0  0  0  0  0  0  0  0  0
    7.1157    2.4912   -1.6362 H   0  0  0  0  0  0  0  0  0  0  0  0
    7.7617   -1.4917   -2.8814 H   0  0  0  0  0  0  0  0  0  0  0  0
    9.0765   -3.5627   -3.2565 H   0  0  0  0  0  0  0  0  0  0  0  0
   12.8398   -1.5345   -0.1327 H   0  0  0  0  0  0  0  0  0  0  0  0
   15.2411   -4.1087   -0.7905 H   0  0  0  0  0  0  0  0  0  0  0  0
   15.3190   -4.1474    1.6882 H   0  0  0  0  0  0  0  0  0  0  0  0
   13.7536   -3.2313    1.8023 H   0  0  0  0  0  0  0  0  0  0  0  0
   16.3374   -2.2466    0.3741 H   0  0  0  0  0  0  0  0  0  0  0  0
   14.7965   -1.3138    0.5095 H   0  0  0  0  0  0  0  0  0  0  0  0
   10.9263   -0.1495   -0.2820 H   0  0  0  0  0  0  0  0  0  0  0  0
    6.8971   -1.6045   -0.2955 H   0  0  0  0  0  0  0  0  0  0  0  0
  1  2  2  0  0  0  0
  2  3  1  0  0  0  0
  2 15  1  0  0  0  0
  3  4  1  0  0  0  0
  3 36  1  0  0  0  0
  4  5  1  0  0  0  0
  4 14  2  0  0  0  0
  5  6  2  0  0  0  0
  5 37  1  0  0  0  0
  6  7  1  0  0  0  0
  6 38  1  0  0  0  0
  7  8  1  0  0  0  0
  7  9  2  0  0  0  0
  9 10  1  0  0  0  0
  9 14  1  0  0  0  0
 10 11  1  0  0  0  0
 10 12  1  0  0  0  0
 10 13  1  0  0  0  0
 14 39  1  0  0  0  0
 15 16  1  0  0  0  0
 15 40  1  0  0  0  0
 16 17  1  0  0  0  0
 16 34  2  0  0  0  0
 17 18  2  0  0  0  0
 17 41  1  0  0  0  0
 18 19  1  0  0  0  0
 18 42  1  0  0  0  0
 19 20  1  0  0  0  0
 19 33  2  0  0  0  0
 20 21  1  0  0  0  0
 21 22  1  0  0  0  0
 21 32  2  0  0  0  0
 22 23  2  0  0  0  0
 22 43  1  0  0  0  0
 23 24  1  0  0  0  0
 23 44  1  0  0  0  0
 24 25  2  0  0  0  0
 25 26  1  0  0  0  0
 25 32  1  0  0  0  0
 26 27  1  0  0  0  0
 26 45  1  0  0  0  0
 27 28  2  0  0  0  0
 27 29  1  0  0  0  0
 29 30  1  0  0  0  0
 29 31  1  0  0  0  0
 29 46  1  0  0  0  0
 30 31  1  0  0  0  0
 30 47  1  0  0  0  0
 30 48  1  0  0  0  0
 31 49  1  0  0  0  0
 31 50  1  0  0  0  0
 32 51  1  0  0  0  0
 33 34  1  0  0  0  0
 33 52  1  0  0  0  0
 34 35  1  0  0  0  0
M  END
$$$$
