CHEMBL3944610
 OpenBabel04072215373D

 61 64  0  0  0  0  0  0  0  0999 V2000
    0.6930   -3.9215   -1.3184 C   0  0  0  0  0  0  0  0  0  0  0  0
    2.0081   -4.3168   -0.9131 O   0  0  0  0  0  0  0  0  0  0  0  0
    2.9643   -3.3318   -0.8347 C   0  0  0  0  0  0  0  0  0  0  0  0
    2.7349   -1.9977   -1.1760 C   0  0  0  0  0  0  0  0  0  0  0  0
    3.7415   -1.0562   -0.9888 C   0  0  0  0  0  0  0  0  0  0  0  0
    3.6283    0.2883   -1.2340 O   0  0  0  0  0  0  0  0  0  0  0  0
    2.4262    0.7373   -1.8535 C   0  0  0  0  0  0  0  0  0  0  0  0
    4.9832   -1.4571   -0.4687 C   0  0  0  0  0  0  0  0  0  0  0  0
    5.2694   -2.7902   -0.1215 C   0  0  0  0  0  0  0  0  0  0  0  0
    6.4564   -3.1552    0.5776 N   0  0  0  0  0  0  0  0  0  0  0  0
    7.0166   -2.1172    1.5316 C   0  0  0  0  0  0  0  0  0  0  0  0
    6.0914   -1.5861    2.6718 C   0  0  0  0  0  0  0  0  0  0  0  0
    5.6544   -2.4792    3.7651 N   0  0  0  0  0  0  0  0  0  0  0  0
    6.7469   -2.9177    4.6481 C   0  0  0  0  0  0  0  0  0  0  0  0
    6.2218   -3.6253    5.9110 C   0  0  0  0  0  0  0  0  0  0  0  0
    5.3368   -4.6874    5.5672 O   0  0  0  0  0  0  0  0  0  0  0  0
    7.5324   -4.0555    0.2049 C   0  0  0  0  0  0  0  0  0  0  0  0
    8.0631   -4.7700    1.2647 C   0  0  0  0  0  0  0  0  0  0  0  0
    9.3752   -5.1943    1.2511 C   0  0  0  0  0  0  0  0  0  0  0  0
   10.1479   -5.0929    0.1173 C   0  0  0  0  0  0  0  0  0  0  0  0
   11.4281   -5.3834    0.3486 N   0  0  0  0  0  0  0  0  0  0  0  0
   12.2297   -5.4716   -0.7192 C   0  0  0  0  0  0  0  0  0  0  0  0
   11.7551   -5.3357   -1.9997 C   0  0  0  0  0  0  0  0  0  0  0  0
   12.6648   -5.8371   -3.0459 C   0  0  0  0  0  0  0  0  0  0  0  0
   12.7673   -7.1438   -3.6020 C   0  0  0  0  0  0  0  0  0  0  0  0
   13.9150   -7.3494   -4.2670 N   0  0  0  0  0  0  0  0  0  0  0  0
   14.5712   -6.1871   -4.1244 N   0  0  0  0  0  0  0  0  0  0  0  0
   15.7890   -5.9364   -4.8626 C   0  0  0  0  0  0  0  0  0  0  0  0
   13.9315   -5.3169   -3.2804 C   0  0  0  0  0  0  0  0  0  0  0  0
   10.4550   -4.9060   -2.2394 N   0  0  0  0  0  0  0  0  0  0  0  0
    9.6087   -4.6980   -1.1340 C   0  0  0  0  0  0  0  0  0  0  0  0
    8.2703   -4.1120   -1.0231 C   0  0  0  0  0  0  0  0  0  0  0  0
    4.2315   -3.7229   -0.3353 C   0  0  0  0  0  0  0  0  0  0  0  0
    0.0353   -4.7953   -1.2645 H   0  0  0  0  0  0  0  0  0  0  0  0
    0.6914   -3.5723   -2.3570 H   0  0  0  0  0  0  0  0  0  0  0  0
    0.2732   -3.1593   -0.6514 H   0  0  0  0  0  0  0  0  0  0  0  0
    1.7739   -1.6874   -1.5654 H   0  0  0  0  0  0  0  0  0  0  0  0
    2.5268    1.8087   -2.0435 H   0  0  0  0  0  0  0  0  0  0  0  0
    1.5632    0.5961   -1.1924 H   0  0  0  0  0  0  0  0  0  0  0  0
    2.2692    0.2406   -2.8171 H   0  0  0  0  0  0  0  0  0  0  0  0
    5.7211   -0.6770   -0.3126 H   0  0  0  0  0  0  0  0  0  0  0  0
    7.3816   -1.2661    0.9441 H   0  0  0  0  0  0  0  0  0  0  0  0
    7.9144   -2.4845    2.0436 H   0  0  0  0  0  0  0  0  0  0  0  0
    5.1863   -1.1452    2.2437 H   0  0  0  0  0  0  0  0  0  0  0  0
    6.6203   -0.7416    3.1355 H   0  0  0  0  0  0  0  0  0  0  0  0
    5.1951   -3.2938    3.3573 H   0  0  0  0  0  0  0  0  0  0  0  0
    7.3645   -2.0707    4.9694 H   0  0  0  0  0  0  0  0  0  0  0  0
    7.3850   -3.6183    4.1042 H   0  0  0  0  0  0  0  0  0  0  0  0
    5.6921   -2.9323    6.5742 H   0  0  0  0  0  0  0  0  0  0  0  0
    7.0568   -4.0546    6.4755 H   0  0  0  0  0  0  0  0  0  0  0  0
    4.5386   -4.2528    5.2164 H   0  0  0  0  0  0  0  0  0  0  0  0
    7.5052   -4.8591    2.2042 H   0  0  0  0  0  0  0  0  0  0  0  0
    9.8269   -5.5758    2.1603 H   0  0  0  0  0  0  0  0  0  0  0  0
   13.2643   -5.7193   -0.5056 H   0  0  0  0  0  0  0  0  0  0  0  0
   12.0862   -7.9791   -3.5043 H   0  0  0  0  0  0  0  0  0  0  0  0
   16.0237   -6.7921   -5.5027 H   0  0  0  0  0  0  0  0  0  0  0  0
   16.6105   -5.7536   -4.1652 H   0  0  0  0  0  0  0  0  0  0  0  0
   15.6158   -5.0543   -5.4850 H   0  0  0  0  0  0  0  0  0  0  0  0
   14.4306   -4.4261   -2.9261 H   0  0  0  0  0  0  0  0  0  0  0  0
    7.8472   -3.6430   -1.9234 H   0  0  0  0  0  0  0  0  0  0  0  0
    4.3708   -4.7600   -0.0353 H   0  0  0  0  0  0  0  0  0  0  0  0
  1  2  1  0  0  0  0
  1 34  1  0  0  0  0
  1 35  1  0  0  0  0
  1 36  1  0  0  0  0
  2  3  1  0  0  0  0
  3  4  1  0  0  0  0
  3 33  2  0  0  0  0
  4  5  2  0  0  0  0
  4 37  1  0  0  0  0
  5  6  1  0  0  0  0
  5  8  1  0  0  0  0
  6  7  1  0  0  0  0
  7 38  1  0  0  0  0
  7 39  1  0  0  0  0
  7 40  1  0  0  0  0
  8  9  2  0  0  0  0
  8 41  1  0  0  0  0
  9 10  1  0  0  0  0
  9 33  1  0  0  0  0
 10 11  1  0  0  0  0
 10 17  1  0  0  0  0
 11 12  1  0  0  0  0
 11 42  1  0  0  0  0
 11 43  1  0  0  0  0
 12 13  1  0  0  0  0
 12 44  1  0  0  0  0
 12 45  1  0  0  0  0
 13 14  1  0  0  0  0
 13 46  1  0  0  0  0
 14 15  1  0  0  0  0
 14 47  1  0  0  0  0
 14 48  1  0  0  0  0
 15 16  1  0  0  0  0
 15 49  1  0  0  0  0
 15 50  1  0  0  0  0
 16 51  1  0  0  0  0
 17 18  1  0  0  0  0
 17 32  2  0  0  0  0
 18 19  2  0  0  0  0
 18 52  1  0  0  0  0
 19 20  1  0  0  0  0
 19 53  1  0  0  0  0
 20 21  1  0  0  0  0
 20 31  2  0  0  0  0
 21 22  2  0  0  0  0
 22 23  1  0  0  0  0
 22 54  1  0  0  0  0
 23 24  1  0  0  0  0
 23 30  2  0  0  0  0
 24 25  1  0  0  0  0
 24 29  2  0  0  0  0
 25 26  2  0  0  0  0
 25 55  1  0  0  0  0
 26 27  1  0  0  0  0
 27 28  1  0  0  0  0
 27 29  1  0  0  0  0
 28 56  1  0  0  0  0
 28 57  1  0  0  0  0
 28 58  1  0  0  0  0
 29 59  1  0  0  0  0
 30 31  1  0  0  0  0
 31 32  1  0  0  0  0
 32 60  1  0  0  0  0
 33 61  1  0  0  0  0
M  END
$$$$
