CHEMBL147138
 OpenBabel04072215363D

 36 38  0  0  0  0  0  0  0  0999 V2000
    3.5836   -1.1446   -0.2057 C   0  0  0  0  0  0  0  0  0  0  0  0
    2.6644   -0.1195    0.1946 O   0  0  0  0  0  0  0  0  0  0  0  0
    3.1773    1.1507    0.2373 C   0  0  0  0  0  0  0  0  0  0  0  0
    4.2279    1.5390   -0.6179 C   0  0  0  0  0  0  0  0  0  0  0  0
    4.8776    2.7634   -0.4926 C   0  0  0  0  0  0  0  0  0  0  0  0
    5.9359    3.0168   -1.2754 N   0  0  0  0  0  0  0  0  0  0  0  0
    6.5555    4.1820   -1.0708 C   0  0  0  0  0  0  0  0  0  0  0  0
    6.2186    5.1073   -0.1716 N   0  0  0  0  0  0  0  0  0  0  0  0
    5.1490    4.8411    0.6055 C   0  0  0  0  0  0  0  0  0  0  0  0
    4.7755    5.7731    1.6148 N   0  0  0  0  0  0  0  0  0  0  0  0
    5.2705    7.0902    1.6915 C   0  0  0  0  0  0  0  0  0  0  0  0
    5.2784    7.9065    0.5525 C   0  0  0  0  0  0  0  0  0  0  0  0
    5.8628    9.1708    0.5804 C   0  0  0  0  0  0  0  0  0  0  0  0
    6.4347    9.6322    1.7607 C   0  0  0  0  0  0  0  0  0  0  0  0
    7.2352   11.1544    1.7774 Cl  0  0  0  0  0  0  0  0  0  0  0  0
    6.3835    8.8598    2.9211 C   0  0  0  0  0  0  0  0  0  0  0  0
    5.7938    7.5922    2.8889 C   0  0  0  0  0  0  0  0  0  0  0  0
    4.4131    3.6578    0.4591 C   0  0  0  0  0  0  0  0  0  0  0  0
    3.2672    3.3399    1.2173 C   0  0  0  0  0  0  0  0  0  0  0  0
    2.6541    2.0868    1.1321 C   0  0  0  0  0  0  0  0  0  0  0  0
    1.6174    2.0067    2.0129 O   0  0  0  0  0  0  0  0  0  0  0  0
    0.9537    0.7830    2.2552 C   0  0  0  0  0  0  0  0  0  0  0  0
    3.3820   -2.0375    0.3928 H   0  0  0  0  0  0  0  0  0  0  0  0
    4.6366   -0.8885   -0.0356 H   0  0  0  0  0  0  0  0  0  0  0  0
    3.4231   -1.3899   -1.2604 H   0  0  0  0  0  0  0  0  0  0  0  0
    4.5895    0.8720   -1.3941 H   0  0  0  0  0  0  0  0  0  0  0  0
    7.4264    4.3933   -1.6863 H   0  0  0  0  0  0  0  0  0  0  0  0
    4.7618    5.3048    2.5148 H   0  0  0  0  0  0  0  0  0  0  0  0
    4.8462    7.5388   -0.3755 H   0  0  0  0  0  0  0  0  0  0  0  0
    5.8860    9.7674   -0.3262 H   0  0  0  0  0  0  0  0  0  0  0  0
    6.8220    9.2276    3.8448 H   0  0  0  0  0  0  0  0  0  0  0  0
    5.7863    6.9914    3.7942 H   0  0  0  0  0  0  0  0  0  0  0  0
    2.8436    4.0735    1.9014 H   0  0  0  0  0  0  0  0  0  0  0  0
    0.4010    0.9117    3.1932 H   0  0  0  0  0  0  0  0  0  0  0  0
    1.6427   -0.0506    2.4076 H   0  0  0  0  0  0  0  0  0  0  0  0
    0.2233    0.5792    1.4683 H   0  0  0  0  0  0  0  0  0  0  0  0
  1  2  1  0  0  0  0
  1 23  1  0  0  0  0
  1 24  1  0  0  0  0
  1 25  1  0  0  0  0
  2  3  1  0  0  0  0
  3  4  1  0  0  0  0
  3 20  2  0  0  0  0
  4  5  2  0  0  0  0
  4 26  1  0  0  0  0
  5  6  1  0  0  0  0
  5 18  1  0  0  0  0
  6  7  2  0  0  0  0
  7  8  1  0  0  0  0
  7 27  1  0  0  0  0
  8  9  2  0  0  0  0
  9 10  1  0  0  0  0
  9 18  1  0  0  0  0
 10 11  1  0  0  0  0
 10 28  1  0  0  0  0
 11 12  1  0  0  0  0
 11 17  2  0  0  0  0
 12 13  2  0  0  0  0
 12 29  1  0  0  0  0
 13 14  1  0  0  0  0
 13 30  1  0  0  0  0
 14 15  1  0  0  0  0
 14 16  2  0  0  0  0
 16 17  1  0  0  0  0
 16 31  1  0  0  0  0
 17 32  1  0  0  0  0
 18 19  2  0  0  0  0
 19 20  1  0  0  0  0
 19 33  1  0  0  0  0
 20 21  1  0  0  0  0
 21 22  1  0  0  0  0
 22 34  1  0  0  0  0
 22 35  1  0  0  0  0
 22 36  1  0  0  0  0
M  END
$$$$
