CHEMBL3099475
 OpenBabel04072215363D

 78 81  0  0  0  0  0  0  0  0999 V2000
    2.1480   -1.9181   -0.4449 C   0  0  0  0  0  0  0  0  0  0  0  0
    2.6284   -0.5808   -0.3372 O   0  0  0  0  0  0  0  0  0  0  0  0
    2.9923   -0.1189    0.9003 C   0  0  0  0  0  0  0  0  0  0  0  0
    2.7458   -0.8102    2.0946 C   0  0  0  0  0  0  0  0  0  0  0  0
    3.2905   -0.4074    3.3446 C   0  0  0  0  0  0  0  0  0  0  0  0
    3.1607   -1.2934    4.5545 C   0  0  0  0  0  0  0  0  0  0  0  0
    3.1241   -2.6816    4.3231 C   0  0  0  0  0  0  0  0  0  0  0  0
    3.0307   -3.6520    5.3179 C   0  0  0  0  0  0  0  0  0  0  0  0
    2.9285   -5.0328    5.0186 N   0  0  0  0  0  0  0  0  0  0  0  0
    2.8957   -5.5679    3.7426 C   0  0  0  0  0  0  0  0  0  0  0  0
    2.9970   -4.9304    2.6992 O   0  0  0  0  0  0  0  0  0  0  0  0
    2.6925   -6.9388    3.7421 N   0  0  0  0  0  0  0  0  0  0  0  0
    2.6974   -7.6143    2.4926 C   0  0  0  0  0  0  0  0  0  0  0  0
    3.7570   -7.3822    1.6024 C   0  0  0  0  0  0  0  0  0  0  0  0
    3.7522   -7.9424    0.3331 C   0  0  0  0  0  0  0  0  0  0  0  0
    4.6902   -7.7051   -0.6251 O   0  0  0  0  0  0  0  0  0  0  0  0
    6.0219   -7.4206   -0.1820 C   0  0  0  0  0  0  0  0  0  0  0  0
    6.9276   -8.4397   -0.8768 C   0  0  0  0  0  0  0  0  0  0  0  0
    8.3668   -8.3202   -0.5844 N   0  0  0  0  0  0  0  0  0  0  0  0
    8.9383   -7.0167   -0.9892 C   0  0  0  0  0  0  0  0  0  0  0  0
    8.9660   -6.8082   -2.5116 C   0  0  0  0  0  0  0  0  0  0  0  0
    9.6852   -7.8605   -3.1693 O   0  0  0  0  0  0  0  0  0  0  0  0
    9.1496   -9.1492   -2.8387 C   0  0  0  0  0  0  0  0  0  0  0  0
    9.1136   -9.3734   -1.3154 C   0  0  0  0  0  0  0  0  0  0  0  0
    2.6853   -8.7443   -0.0560 C   0  0  0  0  0  0  0  0  0  0  0  0
    1.6340   -8.9966    0.8269 C   0  0  0  0  0  0  0  0  0  0  0  0
    1.6232   -8.4305    2.1109 C   0  0  0  0  0  0  0  0  0  0  0  0
    0.3981   -8.5729    2.9653 C   0  0  0  0  0  0  0  0  0  0  0  0
    3.0278   -3.2267    6.6382 C   0  0  0  0  0  0  0  0  0  0  0  0
    3.0917   -1.8523    6.9367 C   0  0  0  0  0  0  0  0  0  0  0  0
    3.0069   -1.4464    8.2476 O   0  0  0  0  0  0  0  0  0  0  0  0
    3.9257   -2.1045    9.1197 C   0  0  0  0  0  0  0  0  0  0  0  0
    3.1339   -0.8785    5.9048 C   0  0  0  0  0  0  0  0  0  0  0  0
    3.0915    0.4792    6.1146 O   0  0  0  0  0  0  0  0  0  0  0  0
    3.6868    0.9820    7.3040 C   0  0  0  0  0  0  0  0  0  0  0  0
    4.0465    0.7662    3.3534 C   0  0  0  0  0  0  0  0  0  0  0  0
    4.2284    1.5185    2.1867 C   0  0  0  0  0  0  0  0  0  0  0  0
    3.6865    1.0935    0.9645 C   0  0  0  0  0  0  0  0  0  0  0  0
    3.9018    1.9794   -0.2134 C   0  0  0  0  0  0  0  0  0  0  0  0
    2.8416    2.0809   -1.2820 C   0  0  0  0  0  0  0  0  0  0  0  0
    4.9163    2.6751   -0.2670 O   0  0  0  0  0  0  0  0  0  0  0  0
    2.0109   -2.1338   -1.5097 H   0  0  0  0  0  0  0  0  0  0  0  0
    1.1725   -2.0194    0.0406 H   0  0  0  0  0  0  0  0  0  0  0  0
    2.8701   -2.6408   -0.0499 H   0  0  0  0  0  0  0  0  0  0  0  0
    2.1360   -1.7083    2.0557 H   0  0  0  0  0  0  0  0  0  0  0  0
    3.2007   -2.9931    3.2921 H   0  0  0  0  0  0  0  0  0  0  0  0
    2.9382   -5.6826    5.7904 H   0  0  0  0  0  0  0  0  0  0  0  0
    2.0220   -7.2531    4.4256 H   0  0  0  0  0  0  0  0  0  0  0  0
    4.5493   -6.7021    1.8993 H   0  0  0  0  0  0  0  0  0  0  0  0
    6.1745   -7.5003    0.8984 H   0  0  0  0  0  0  0  0  0  0  0  0
    6.2502   -6.3966   -0.4947 H   0  0  0  0  0  0  0  0  0  0  0  0
    6.7124   -8.3996   -1.9498 H   0  0  0  0  0  0  0  0  0  0  0  0
    6.5911   -9.4356   -0.5552 H   0  0  0  0  0  0  0  0  0  0  0  0
    9.9714   -6.9819   -0.6162 H   0  0  0  0  0  0  0  0  0  0  0  0
    8.4250   -6.1865   -0.4942 H   0  0  0  0  0  0  0  0  0  0  0  0
    9.4769   -5.8683   -2.7424 H   0  0  0  0  0  0  0  0  0  0  0  0
    7.9549   -6.7395   -2.9295 H   0  0  0  0  0  0  0  0  0  0  0  0
    9.7916   -9.9030   -3.3044 H   0  0  0  0  0  0  0  0  0  0  0  0
    8.1576   -9.2533   -3.2922 H   0  0  0  0  0  0  0  0  0  0  0  0
   10.1435   -9.3751   -0.9356 H   0  0  0  0  0  0  0  0  0  0  0  0
    8.7018  -10.3632   -1.0843 H   0  0  0  0  0  0  0  0  0  0  0  0
    2.6601   -9.1551   -1.0620 H   0  0  0  0  0  0  0  0  0  0  0  0
    0.7967   -9.5982    0.4812 H   0  0  0  0  0  0  0  0  0  0  0  0
   -0.3452   -9.2250    2.4972 H   0  0  0  0  0  0  0  0  0  0  0  0
   -0.0680   -7.5902    3.1051 H   0  0  0  0  0  0  0  0  0  0  0  0
    0.6540   -8.9976    3.9397 H   0  0  0  0  0  0  0  0  0  0  0  0
    2.9437   -3.9508    7.4416 H   0  0  0  0  0  0  0  0  0  0  0  0
    4.1797   -1.4062    9.9233 H   0  0  0  0  0  0  0  0  0  0  0  0
    4.8584   -2.3871    8.6174 H   0  0  0  0  0  0  0  0  0  0  0  0
    3.4497   -2.9807    9.5695 H   0  0  0  0  0  0  0  0  0  0  0  0
    3.9520    2.0288    7.1263 H   0  0  0  0  0  0  0  0  0  0  0  0
    4.6111    0.4544    7.5640 H   0  0  0  0  0  0  0  0  0  0  0  0
    2.9667    0.9676    8.1273 H   0  0  0  0  0  0  0  0  0  0  0  0
    4.5381    1.1047    4.2602 H   0  0  0  0  0  0  0  0  0  0  0  0
    4.8151    2.4346    2.2343 H   0  0  0  0  0  0  0  0  0  0  0  0
    1.9249    1.5451   -1.0310 H   0  0  0  0  0  0  0  0  0  0  0  0
    3.2416    1.6982   -2.2244 H   0  0  0  0  0  0  0  0  0  0  0  0
    2.5626    3.1322   -1.3962 H   0  0  0  0  0  0  0  0  0  0  0  0
  1  2  1  0  0  0  0
  1 42  1  0  0  0  0
  1 43  1  0  0  0  0
  1 44  1  0  0  0  0
  2  3  1  0  0  0  0
  3  4  1  0  0  0  0
  3 38  2  0  0  0  0
  4  5  2  0  0  0  0
  4 45  1  0  0  0  0
  5  6  1  0  0  0  0
  5 36  1  0  0  0  0
  6  7  1  0  0  0  0
  6 33  2  0  0  0  0
  7  8  2  0  0  0  0
  7 46  1  0  0  0  0
  8  9  1  0  0  0  0
  8 29  1  0  0  0  0
  9 10  1  0  0  0  0
  9 47  1  0  0  0  0
 10 11  2  0  0  0  0
 10 12  1  0  0  0  0
 12 13  1  0  0  0  0
 12 48  1  0  0  0  0
 13 14  1  0  0  0  0
 13 27  2  0  0  0  0
 14 15  2  0  0  0  0
 14 49  1  0  0  0  0
 15 16  1  0  0  0  0
 15 25  1  0  0  0  0
 16 17  1  0  0  0  0
 17 18  1  0  0  0  0
 17 50  1  0  0  0  0
 17 51  1  0  0  0  0
 18 19  1  0  0  0  0
 18 52  1  0  0  0  0
 18 53  1  0  0  0  0
 19 20  1  0  0  0  0
 19 24  1  0  0  0  0
 20 21  1  0  0  0  0
 20 54  1  0  0  0  0
 20 55  1  0  0  0  0
 21 22  1  0  0  0  0
 21 56  1  0  0  0  0
 21 57  1  0  0  0  0
 22 23  1  0  0  0  0
 23 24  1  0  0  0  0
 23 58  1  0  0  0  0
 23 59  1  0  0  0  0
 24 60  1  0  0  0  0
 24 61  1  0  0  0  0
 25 26  2  0  0  0  0
 25 62  1  0  0  0  0
 26 27  1  0  0  0  0
 26 63  1  0  0  0  0
 27 28  1  0  0  0  0
 28 64  1  0  0  0  0
 28 65  1  0  0  0  0
 28 66  1  0  0  0  0
 29 30  2  0  0  0  0
 29 67  1  0  0  0  0
 30 31  1  0  0  0  0
 30 33  1  0  0  0  0
 31 32  1  0  0  0  0
 32 68  1  0  0  0  0
 32 69  1  0  0  0  0
 32 70  1  0  0  0  0
 33 34  1  0  0  0  0
 34 35  1  0  0  0  0
 35 71  1  0  0  0  0
 35 72  1  0  0  0  0
 35 73  1  0  0  0  0
 36 37  2  0  0  0  0
 36 74  1  0  0  0  0
 37 38  1  0  0  0  0
 37 75  1  0  0  0  0
 38 39  1  0  0  0  0
 39 40  1  0  0  0  0
 39 41  2  0  0  0  0
 40 76  1  0  0  0  0
 40 77  1  0  0  0  0
 40 78  1  0  0  0  0
M  END
$$$$
