CHEMBL1979577
 OpenBabel04072215363D

 58 61  0  0  0  0  0  0  0  0999 V2000
    2.3790   -0.3691    1.5029 C   0  0  0  0  0  0  0  0  0  0  0  0
    0.8770   -0.2948    1.4692 C   0  0  0  0  0  0  0  0  0  0  0  0
    0.2439    0.8869    1.8919 C   0  0  0  0  0  0  0  0  0  0  0  0
   -1.1290    0.9834    1.8702 C   0  0  0  0  0  0  0  0  0  0  0  0
   -1.9014   -0.1024    1.4319 C   0  0  0  0  0  0  0  0  0  0  0  0
   -1.3102   -1.3019    1.0003 C   0  0  0  0  0  0  0  0  0  0  0  0
   -2.0724   -2.4070    0.5447 N   0  0  0  0  0  0  0  0  0  0  0  0
   -3.4526   -2.4290    0.4098 C   0  0  0  0  0  0  0  0  0  0  0  0
   -4.1972   -1.4846    0.6407 O   0  0  0  0  0  0  0  0  0  0  0  0
   -3.9522   -3.6698    0.0107 N   0  0  0  0  0  0  0  0  0  0  0  0
   -5.3595   -3.8138   -0.1431 C   0  0  0  0  0  0  0  0  0  0  0  0
   -6.0917   -2.9262   -0.9339 C   0  0  0  0  0  0  0  0  0  0  0  0
   -7.4905   -2.9913   -0.9765 C   0  0  0  0  0  0  0  0  0  0  0  0
   -8.1932   -3.9691   -0.2557 C   0  0  0  0  0  0  0  0  0  0  0  0
   -9.6732   -3.9687   -0.2374 C   0  0  0  0  0  0  0  0  0  0  0  0
  -10.3542   -3.5759   -1.3758 C   0  0  0  0  0  0  0  0  0  0  0  0
  -12.0380   -3.5825   -1.2058 S   0  0  0  0  0  0  0  0  0  0  0  0
  -11.9516   -4.1162    0.4307 C   0  0  0  0  0  0  0  0  0  0  0  0
  -13.0351   -4.3632    1.2937 C   0  0  0  0  0  0  0  0  0  0  0  0
  -14.3914   -4.2012    0.8663 C   0  0  0  0  0  0  0  0  0  0  0  0
  -15.6301   -4.0656    0.4828 C   0  0  0  0  0  0  0  0  0  0  0  0
  -17.0743   -3.9076    0.0357 C   0  0  0  0  0  0  0  0  0  0  0  0
  -17.1180   -3.1180   -1.2752 C   0  0  0  0  0  0  0  0  0  0  0  0
  -17.7046   -5.2901   -0.1506 C   0  0  0  0  0  0  0  0  0  0  0  0
  -17.8075   -3.1761    1.0670 N   0  0  0  0  0  0  0  0  0  0  0  0
  -12.7209   -4.7759    2.5681 C   0  0  0  0  0  0  0  0  0  0  0  0
  -11.4665   -4.9461    3.0182 N   0  0  0  0  0  0  0  0  0  0  0  0
  -10.4152   -4.7091    2.2047 C   0  0  0  0  0  0  0  0  0  0  0  0
   -9.1850   -4.8977    2.8181 N   0  0  0  0  0  0  0  0  0  0  0  0
  -10.6144   -4.2880    0.8540 C   0  0  0  0  0  0  0  0  0  0  0  0
   -7.4341   -4.9174    0.4432 C   0  0  0  0  0  0  0  0  0  0  0  0
   -6.0343   -4.8242    0.5348 C   0  0  0  0  0  0  0  0  0  0  0  0
    0.0917   -1.3829    1.0273 C   0  0  0  0  0  0  0  0  0  0  0  0
    2.8094    0.5622    1.8916 H   0  0  0  0  0  0  0  0  0  0  0  0
    2.7735   -0.5191    0.4954 H   0  0  0  0  0  0  0  0  0  0  0  0
    2.7075   -1.1804    2.1589 H   0  0  0  0  0  0  0  0  0  0  0  0
    0.8308    1.7337    2.2355 H   0  0  0  0  0  0  0  0  0  0  0  0
   -1.6289    1.8922    2.1991 H   0  0  0  0  0  0  0  0  0  0  0  0
   -2.9705    0.0493    1.4463 H   0  0  0  0  0  0  0  0  0  0  0  0
   -1.5532   -3.2083    0.2030 H   0  0  0  0  0  0  0  0  0  0  0  0
   -3.4594   -4.4637    0.3867 H   0  0  0  0  0  0  0  0  0  0  0  0
   -5.5850   -2.1507   -1.5042 H   0  0  0  0  0  0  0  0  0  0  0  0
   -8.0104   -2.2425   -1.5692 H   0  0  0  0  0  0  0  0  0  0  0  0
   -9.9432   -3.2719   -2.3290 H   0  0  0  0  0  0  0  0  0  0  0  0
  -16.5633   -3.6365   -2.0667 H   0  0  0  0  0  0  0  0  0  0  0  0
  -16.6662   -2.1247   -1.1638 H   0  0  0  0  0  0  0  0  0  0  0  0
  -18.1475   -2.9809   -1.6260 H   0  0  0  0  0  0  0  0  0  0  0  0
  -17.1668   -5.8697   -0.9107 H   0  0  0  0  0  0  0  0  0  0  0  0
  -18.7506   -5.2137   -0.4697 H   0  0  0  0  0  0  0  0  0  0  0  0
  -17.6788   -5.8744    0.7773 H   0  0  0  0  0  0  0  0  0  0  0  0
  -17.3578   -2.2741    1.2179 H   0  0  0  0  0  0  0  0  0  0  0  0
  -17.7346   -3.6799    1.9494 H   0  0  0  0  0  0  0  0  0  0  0  0
  -13.4974   -4.9910    3.2967 H   0  0  0  0  0  0  0  0  0  0  0  0
   -9.3060   -5.0010    3.8185 H   0  0  0  0  0  0  0  0  0  0  0  0
   -8.4819   -4.2255    2.5396 H   0  0  0  0  0  0  0  0  0  0  0  0
   -7.9204   -5.7344    0.9712 H   0  0  0  0  0  0  0  0  0  0  0  0
   -5.5075   -5.5015    1.2010 H   0  0  0  0  0  0  0  0  0  0  0  0
    0.5888   -2.2943    0.7074 H   0  0  0  0  0  0  0  0  0  0  0  0
  1  2  1  0  0  0  0
  1 34  1  0  0  0  0
  1 35  1  0  0  0  0
  1 36  1  0  0  0  0
  2  3  1  0  0  0  0
  2 33  2  0  0  0  0
  3  4  2  0  0  0  0
  3 37  1  0  0  0  0
  4  5  1  0  0  0  0
  4 38  1  0  0  0  0
  5  6  2  0  0  0  0
  5 39  1  0  0  0  0
  6  7  1  0  0  0  0
  6 33  1  0  0  0  0
  7  8  1  0  0  0  0
  7 40  1  0  0  0  0
  8  9  2  0  0  0  0
  8 10  1  0  0  0  0
 10 11  1  0  0  0  0
 10 41  1  0  0  0  0
 11 12  1  0  0  0  0
 11 32  2  0  0  0  0
 12 13  2  0  0  0  0
 12 42  1  0  0  0  0
 13 14  1  0  0  0  0
 13 43  1  0  0  0  0
 14 15  1  0  0  0  0
 14 31  2  0  0  0  0
 15 16  2  0  0  0  0
 15 30  1  0  0  0  0
 16 17  1  0  0  0  0
 16 44  1  0  0  0  0
 17 18  1  0  0  0  0
 18 19  1  0  0  0  0
 18 30  2  0  0  0  0
 19 20  1  0  0  0  0
 19 26  2  0  0  0  0
 20 21  3  0  0  0  0
 21 22  1  0  0  0  0
 22 23  1  0  0  0  0
 22 24  1  0  0  0  0
 22 25  1  0  0  0  0
 23 45  1  0  0  0  0
 23 46  1  0  0  0  0
 23 47  1  0  0  0  0
 24 48  1  0  0  0  0
 24 49  1  0  0  0  0
 24 50  1  0  0  0  0
 25 51  1  0  0  0  0
 25 52  1  0  0  0  0
 26 27  1  0  0  0  0
 26 53  1  0  0  0  0
 27 28  2  0  0  0  0
 28 29  1  0  0  0  0
 28 30  1  0  0  0  0
 29 54  1  0  0  0  0
 29 55  1  0  0  0  0
 31 32  1  0  0  0  0
 31 56  1  0  0  0  0
 32 57  1  0  0  0  0
 33 58  1  0  0  0  0
M  END
$$$$
