CHEMBL2420867
 OpenBabel04072215363D

 39 42  0  0  0  0  0  0  0  0999 V2000
    1.2271    0.2013    0.8076 C   0  0  0  0  0  0  0  0  0  0  0  0
    2.3198   -0.0714   -0.0633 O   0  0  0  0  0  0  0  0  0  0  0  0
    2.9531    1.0126   -0.6058 C   0  0  0  0  0  0  0  0  0  0  0  0
    2.5365    2.3342   -0.4956 C   0  0  0  0  0  0  0  0  0  0  0  0
    3.3057    3.3572   -1.0560 C   0  0  0  0  0  0  0  0  0  0  0  0
    4.5456    3.0946   -1.6604 C   0  0  0  0  0  0  0  0  0  0  0  0
    4.9124    1.7522   -1.8618 C   0  0  0  0  0  0  0  0  0  0  0  0
    4.1110    0.7251   -1.3331 C   0  0  0  0  0  0  0  0  0  0  0  0
    6.1467    1.3954   -2.6506 C   0  0  0  0  0  0  0  0  0  0  0  0
    7.0995    2.5721   -2.8280 C   0  0  0  0  0  0  0  0  0  0  0  0
    6.3210    3.8499   -3.1173 C   0  0  0  0  0  0  0  0  0  0  0  0
    5.4482    4.1388   -1.9717 N   0  0  0  0  0  0  0  0  0  0  0  0
    5.6375    5.3863   -1.3276 C   0  0  0  0  0  0  0  0  0  0  0  0
    6.0598    6.4096   -2.0966 N   0  0  0  0  0  0  0  0  0  0  0  0
    6.1165    7.6086   -1.5177 C   0  0  0  0  0  0  0  0  0  0  0  0
    6.6819    8.8910   -2.4939 Cl  0  0  0  0  0  0  0  0  0  0  0  0
    5.7688    7.9285   -0.2723 N   0  0  0  0  0  0  0  0  0  0  0  0
    5.3814    6.9147    0.4975 C   0  0  0  0  0  0  0  0  0  0  0  0
    4.9714    7.2087    1.7962 C   0  0  0  0  0  0  0  0  0  0  0  0
    4.5535    6.2183    2.6911 C   0  0  0  0  0  0  0  0  0  0  0  0
    4.6225    4.8917    2.3118 C   0  0  0  0  0  0  0  0  0  0  0  0
    5.0683    4.5809    1.0303 C   0  0  0  0  0  0  0  0  0  0  0  0
    5.3548    5.5847    0.0574 C   0  0  0  0  0  0  0  0  0  0  0  0
    0.8322   -0.7553    1.1619 H   0  0  0  0  0  0  0  0  0  0  0  0
    0.4190    0.7163    0.2783 H   0  0  0  0  0  0  0  0  0  0  0  0
    1.5524    0.7740    1.6838 H   0  0  0  0  0  0  0  0  0  0  0  0
    1.6373    2.6150    0.0413 H   0  0  0  0  0  0  0  0  0  0  0  0
    2.9579    4.3826   -0.9487 H   0  0  0  0  0  0  0  0  0  0  0  0
    4.4095   -0.3135   -1.4585 H   0  0  0  0  0  0  0  0  0  0  0  0
    5.8237    1.0411   -3.6375 H   0  0  0  0  0  0  0  0  0  0  0  0
    6.6842    0.5744   -2.1624 H   0  0  0  0  0  0  0  0  0  0  0  0
    7.8049    2.3605   -3.6394 H   0  0  0  0  0  0  0  0  0  0  0  0
    7.6908    2.7082   -1.9134 H   0  0  0  0  0  0  0  0  0  0  0  0
    5.7182    3.7425   -4.0281 H   0  0  0  0  0  0  0  0  0  0  0  0
    7.0478    4.6453   -3.3210 H   0  0  0  0  0  0  0  0  0  0  0  0
    4.9686    8.2470    2.1229 H   0  0  0  0  0  0  0  0  0  0  0  0
    4.1954    6.4914    3.6787 H   0  0  0  0  0  0  0  0  0  0  0  0
    4.3168    4.1032    2.9892 H   0  0  0  0  0  0  0  0  0  0  0  0
    5.1662    3.5270    0.7805 H   0  0  0  0  0  0  0  0  0  0  0  0
  1  2  1  0  0  0  0
  1 24  1  0  0  0  0
  1 25  1  0  0  0  0
  1 26  1  0  0  0  0
  2  3  1  0  0  0  0
  3  4  1  0  0  0  0
  3  8  2  0  0  0  0
  4  5  2  0  0  0  0
  4 27  1  0  0  0  0
  5  6  1  0  0  0  0
  5 28  1  0  0  0  0
  6  7  2  0  0  0  0
  6 12  1  0  0  0  0
  7  8  1  0  0  0  0
  7  9  1  0  0  0  0
  8 29  1  0  0  0  0
  9 10  1  0  0  0  0
  9 30  1  0  0  0  0
  9 31  1  0  0  0  0
 10 11  1  0  0  0  0
 10 32  1  0  0  0  0
 10 33  1  0  0  0  0
 11 12  1  0  0  0  0
 11 34  1  0  0  0  0
 11 35  1  0  0  0  0
 12 13  1  0  0  0  0
 13 14  1  0  0  0  0
 13 23  2  0  0  0  0
 14 15  2  0  0  0  0
 15 16  1  0  0  0  0
 15 17  1  0  0  0  0
 17 18  2  0  0  0  0
 18 19  1  0  0  0  0
 18 23  1  0  0  0  0
 19 20  2  0  0  0  0
 19 36  1  0  0  0  0
 20 21  1  0  0  0  0
 20 37  1  0  0  0  0
 21 22  2  0  0  0  0
 21 38  1  0  0  0  0
 22 23  1  0  0  0  0
 22 39  1  0  0  0  0
M  END
$$$$
