CHEMBL3901420
 OpenBabel04072215373D

 72 75  0  0  0  0  0  0  0  0999 V2000
    1.5349    2.9312    0.9463 C   0  0  0  0  0  0  0  0  0  0  0  0
    2.6835    2.0976    0.7260 N   0  0  0  0  0  0  0  0  0  0  0  0
    3.6193    1.9282    1.7520 C   0  0  0  0  0  0  0  0  0  0  0  0
    3.4784    2.4278    2.8618 O   0  0  0  0  0  0  0  0  0  0  0  0
    4.8604    1.1555    1.4483 C   0  0  0  0  0  0  0  0  0  0  0  0
    5.3179    0.9681    0.1452 C   0  0  0  0  0  0  0  0  0  0  0  0
    6.5282    0.3069   -0.0721 C   0  0  0  0  0  0  0  0  0  0  0  0
    7.0485    0.0421   -1.3156 O   0  0  0  0  0  0  0  0  0  0  0  0
    6.3889    0.6418   -2.4313 C   0  0  0  0  0  0  0  0  0  0  0  0
    7.3112   -0.1185    1.0257 C   0  0  0  0  0  0  0  0  0  0  0  0
    6.9101    0.1043    2.3525 C   0  0  0  0  0  0  0  0  0  0  0  0
    7.6978   -0.2841    3.4657 N   0  0  0  0  0  0  0  0  0  0  0  0
    6.9308   -0.9440    4.6235 C   0  0  0  0  0  0  0  0  0  0  0  0
    5.8565   -2.0640    4.3411 C   0  0  0  0  0  0  0  0  0  0  0  0
    6.2215   -3.4265    3.9144 N   0  0  0  0  0  0  0  0  0  0  0  0
    7.0449   -4.2406    4.8153 C   0  0  0  0  0  0  0  0  0  0  0  0
    6.4969   -4.4160    6.2349 C   0  0  0  0  0  0  0  0  0  0  0  0
    7.2288   -5.6326    4.1890 C   0  0  0  0  0  0  0  0  0  0  0  0
    9.1242   -0.2629    3.6802 C   0  0  0  0  0  0  0  0  0  0  0  0
    9.6550   -1.4668    4.0020 C   0  0  0  0  0  0  0  0  0  0  0  0
   10.7389   -1.5437    4.8497 C   0  0  0  0  0  0  0  0  0  0  0  0
   11.4608   -0.4671    5.2417 C   0  0  0  0  0  0  0  0  0  0  0  0
   12.1923   -0.8358    6.2802 N   0  0  0  0  0  0  0  0  0  0  0  0
   13.2573   -0.1162    6.5844 C   0  0  0  0  0  0  0  0  0  0  0  0
   13.7252    0.9109    5.8079 C   0  0  0  0  0  0  0  0  0  0  0  0
   15.2290    1.0836    6.0698 C   0  0  0  0  0  0  0  0  0  0  0  0
   16.1311    2.1569    6.3057 C   0  0  0  0  0  0  0  0  0  0  0  0
   17.3283    1.7822    6.8164 N   0  0  0  0  0  0  0  0  0  0  0  0
   17.2471    0.4406    6.9627 N   0  0  0  0  0  0  0  0  0  0  0  0
   18.3885   -0.3183    7.5269 C   0  0  0  0  0  0  0  0  0  0  0  0
   18.0897   -1.4938    8.4893 C   0  0  0  0  0  0  0  0  0  0  0  0
   19.3294   -0.8431    6.4347 C   0  0  0  0  0  0  0  0  0  0  0  0
   16.0367   -0.0107    6.4866 C   0  0  0  0  0  0  0  0  0  0  0  0
   12.8119    1.4610    4.8693 N   0  0  0  0  0  0  0  0  0  0  0  0
   11.4839    0.7533    4.5894 C   0  0  0  0  0  0  0  0  0  0  0  0
   10.0798    0.8601    3.8563 C   0  0  0  0  0  0  0  0  0  0  0  0
    5.6436    0.7020    2.5278 C   0  0  0  0  0  0  0  0  0  0  0  0
    0.9183    2.9163    0.0454 H   0  0  0  0  0  0  0  0  0  0  0  0
    1.8670    3.9556    1.1483 H   0  0  0  0  0  0  0  0  0  0  0  0
    0.9622    2.5653    1.8020 H   0  0  0  0  0  0  0  0  0  0  0  0
    2.7470    1.5477   -0.1020 H   0  0  0  0  0  0  0  0  0  0  0  0
    4.7494    1.3709   -0.6829 H   0  0  0  0  0  0  0  0  0  0  0  0
    6.9687    0.4224   -3.3329 H   0  0  0  0  0  0  0  0  0  0  0  0
    6.3433    1.7321   -2.3272 H   0  0  0  0  0  0  0  0  0  0  0  0
    5.3864    0.2213   -2.5722 H   0  0  0  0  0  0  0  0  0  0  0  0
    8.2343   -0.6575    0.8256 H   0  0  0  0  0  0  0  0  0  0  0  0
    6.4145   -0.1391    5.1610 H   0  0  0  0  0  0  0  0  0  0  0  0
    7.6144   -1.3636    5.3715 H   0  0  0  0  0  0  0  0  0  0  0  0
    5.1170   -1.7074    3.6162 H   0  0  0  0  0  0  0  0  0  0  0  0
    5.2680   -2.1756    5.2638 H   0  0  0  0  0  0  0  0  0  0  0  0
    6.6315   -3.3931    2.9819 H   0  0  0  0  0  0  0  0  0  0  0  0
    8.0346   -3.7901    4.8968 H   0  0  0  0  0  0  0  0  0  0  0  0
    5.5162   -4.9038    6.2398 H   0  0  0  0  0  0  0  0  0  0  0  0
    6.4148   -3.4606    6.7603 H   0  0  0  0  0  0  0  0  0  0  0  0
    7.1779   -5.0433    6.8249 H   0  0  0  0  0  0  0  0  0  0  0  0
    6.2846   -6.1892    4.1474 H   0  0  0  0  0  0  0  0  0  0  0  0
    7.9368   -6.2290    4.7773 H   0  0  0  0  0  0  0  0  0  0  0  0
    7.6282   -5.5662    3.1713 H   0  0  0  0  0  0  0  0  0  0  0  0
    9.1312   -2.3778    3.7747 H   0  0  0  0  0  0  0  0  0  0  0  0
   10.9780   -2.5064    5.2884 H   0  0  0  0  0  0  0  0  0  0  0  0
   13.8116   -0.5227    7.4205 H   0  0  0  0  0  0  0  0  0  0  0  0
   15.9733    3.2203    6.1887 H   0  0  0  0  0  0  0  0  0  0  0  0
   18.9566    0.4080    8.1260 H   0  0  0  0  0  0  0  0  0  0  0  0
   17.4678   -2.2700    8.0328 H   0  0  0  0  0  0  0  0  0  0  0  0
   17.6154   -1.1613    9.4173 H   0  0  0  0  0  0  0  0  0  0  0  0
   19.0298   -1.9879    8.7892 H   0  0  0  0  0  0  0  0  0  0  0  0
   18.8217   -1.5613    5.7828 H   0  0  0  0  0  0  0  0  0  0  0  0
   20.1961   -1.3576    6.8743 H   0  0  0  0  0  0  0  0  0  0  0  0
   19.7161   -0.0255    5.8215 H   0  0  0  0  0  0  0  0  0  0  0  0
   15.8203   -1.0676    6.5552 H   0  0  0  0  0  0  0  0  0  0  0  0
    9.7817    1.8509    3.4903 H   0  0  0  0  0  0  0  0  0  0  0  0
    5.2484    0.8591    3.5299 H   0  0  0  0  0  0  0  0  0  0  0  0
  1  2  1  0  0  0  0
  1 38  1  0  0  0  0
  1 39  1  0  0  0  0
  1 40  1  0  0  0  0
  2  3  1  0  0  0  0
  2 41  1  0  0  0  0
  3  4  2  0  0  0  0
  3  5  1  0  0  0  0
  5  6  1  0  0  0  0
  5 37  2  0  0  0  0
  6  7  2  0  0  0  0
  6 42  1  0  0  0  0
  7  8  1  0  0  0  0
  7 10  1  0  0  0  0
  8  9  1  0  0  0  0
  9 43  1  0  0  0  0
  9 44  1  0  0  0  0
  9 45  1  0  0  0  0
 10 11  2  0  0  0  0
 10 46  1  0  0  0  0
 11 12  1  0  0  0  0
 11 37  1  0  0  0  0
 12 13  1  0  0  0  0
 12 19  1  0  0  0  0
 13 14  1  0  0  0  0
 13 47  1  0  0  0  0
 13 48  1  0  0  0  0
 14 15  1  0  0  0  0
 14 49  1  0  0  0  0
 14 50  1  0  0  0  0
 15 16  1  0  0  0  0
 15 51  1  0  0  0  0
 16 17  1  0  0  0  0
 16 18  1  0  0  0  0
 16 52  1  0  0  0  0
 17 53  1  0  0  0  0
 17 54  1  0  0  0  0
 17 55  1  0  0  0  0
 18 56  1  0  0  0  0
 18 57  1  0  0  0  0
 18 58  1  0  0  0  0
 19 20  1  0  0  0  0
 19 36  2  0  0  0  0
 20 21  2  0  0  0  0
 20 59  1  0  0  0  0
 21 22  1  0  0  0  0
 21 60  1  0  0  0  0
 22 23  1  0  0  0  0
 22 35  2  0  0  0  0
 23 24  2  0  0  0  0
 24 25  1  0  0  0  0
 24 61  1  0  0  0  0
 25 26  1  0  0  0  0
 25 34  2  0  0  0  0
 26 27  1  0  0  0  0
 26 33  2  0  0  0  0
 27 28  2  0  0  0  0
 27 62  1  0  0  0  0
 28 29  1  0  0  0  0
 29 30  1  0  0  0  0
 29 33  1  0  0  0  0
 30 31  1  0  0  0  0
 30 32  1  0  0  0  0
 30 63  1  0  0  0  0
 31 64  1  0  0  0  0
 31 65  1  0  0  0  0
 31 66  1  0  0  0  0
 32 67  1  0  0  0  0
 32 68  1  0  0  0  0
 32 69  1  0  0  0  0
 33 70  1  0  0  0  0
 34 35  1  0  0  0  0
 35 36  1  0  0  0  0
 36 71  1  0  0  0  0
 37 72  1  0  0  0  0
M  END
$$$$
