CHEMBL3633761
 OpenBabel04072215373D

 53 55  0  0  0  0  0  0  0  0999 V2000
    2.4308    1.7374    0.2425 C   0  0  0  0  0  0  0  0  0  0  0  0
    2.3639    0.3142    0.1288 O   0  0  0  0  0  0  0  0  0  0  0  0
    2.9864   -0.3783    1.1349 C   0  0  0  0  0  0  0  0  0  0  0  0
    4.1143    0.1435    1.7843 C   0  0  0  0  0  0  0  0  0  0  0  0
    4.6741   -0.4579    2.8957 C   0  0  0  0  0  0  0  0  0  0  0  0
    5.6948    0.1679    3.4854 N   0  0  0  0  0  0  0  0  0  0  0  0
    6.1780   -0.3938    4.5936 C   0  0  0  0  0  0  0  0  0  0  0  0
    5.7477   -1.5287    5.1414 N   0  0  0  0  0  0  0  0  0  0  0  0
    4.7338   -2.1678    4.5233 C   0  0  0  0  0  0  0  0  0  0  0  0
    4.2728   -3.3923    5.0800 N   0  0  0  0  0  0  0  0  0  0  0  0
    4.6189   -3.8433    6.3749 C   0  0  0  0  0  0  0  0  0  0  0  0
    4.5072   -2.9878    7.4830 C   0  0  0  0  0  0  0  0  0  0  0  0
    4.9078   -3.3963    8.7545 C   0  0  0  0  0  0  0  0  0  0  0  0
    5.4226   -4.6766    8.9359 C   0  0  0  0  0  0  0  0  0  0  0  0
    5.5115   -5.5432    7.8476 C   0  0  0  0  0  0  0  0  0  0  0  0
    6.1538   -7.1248    8.0738 Cl  0  0  0  0  0  0  0  0  0  0  0  0
    5.1034   -5.1398    6.5743 C   0  0  0  0  0  0  0  0  0  0  0  0
    4.1268   -1.6568    3.3625 C   0  0  0  0  0  0  0  0  0  0  0  0
    3.0262   -2.2307    2.6719 C   0  0  0  0  0  0  0  0  0  0  0  0
    2.4726   -1.6143    1.5439 C   0  0  0  0  0  0  0  0  0  0  0  0
    1.3966   -2.2787    1.0074 O   0  0  0  0  0  0  0  0  0  0  0  0
    1.3022   -2.2519   -0.4206 C   0  0  0  0  0  0  0  0  0  0  0  0
    0.2549   -3.2727   -0.8805 C   0  0  0  0  0  0  0  0  0  0  0  0
    0.0885   -3.2254   -2.4024 C   0  0  0  0  0  0  0  0  0  0  0  0
   -1.0027   -4.1690   -2.9100 C   0  0  0  0  0  0  0  0  0  0  0  0
   -1.1415   -4.0809   -4.4330 C   0  0  0  0  0  0  0  0  0  0  0  0
   -2.2015   -5.0217   -4.9667 C   0  0  0  0  0  0  0  0  0  0  0  0
   -2.8871   -5.7661   -4.2733 O   0  0  0  0  0  0  0  0  0  0  0  0
   -2.3332   -4.9793   -6.3391 N   0  0  0  0  0  0  0  0  0  0  0  0
   -3.3890   -5.7591   -6.8682 O   0  0  0  0  0  0  0  0  0  0  0  0
    1.5982    2.1641   -0.3229 H   0  0  0  0  0  0  0  0  0  0  0  0
    3.3636    2.1057   -0.1971 H   0  0  0  0  0  0  0  0  0  0  0  0
    2.3313    2.0771    1.2806 H   0  0  0  0  0  0  0  0  0  0  0  0
    4.5694    1.0700    1.4461 H   0  0  0  0  0  0  0  0  0  0  0  0
    6.9899    0.1201    5.0960 H   0  0  0  0  0  0  0  0  0  0  0  0
    4.3401   -4.1226    4.3791 H   0  0  0  0  0  0  0  0  0  0  0  0
    4.1170   -1.9807    7.3484 H   0  0  0  0  0  0  0  0  0  0  0  0
    4.8310   -2.7086    9.5926 H   0  0  0  0  0  0  0  0  0  0  0  0
    5.7555   -4.9888    9.9216 H   0  0  0  0  0  0  0  0  0  0  0  0
    5.1986   -5.8274    5.7397 H   0  0  0  0  0  0  0  0  0  0  0  0
    2.5752   -3.1527    3.0331 H   0  0  0  0  0  0  0  0  0  0  0  0
    2.2736   -2.4941   -0.8699 H   0  0  0  0  0  0  0  0  0  0  0  0
    0.9670   -1.2672   -0.7555 H   0  0  0  0  0  0  0  0  0  0  0  0
   -0.7011   -3.0588   -0.3863 H   0  0  0  0  0  0  0  0  0  0  0  0
    0.5459   -4.2789   -0.5556 H   0  0  0  0  0  0  0  0  0  0  0  0
    1.0426   -3.4836   -2.8779 H   0  0  0  0  0  0  0  0  0  0  0  0
   -0.1551   -2.2003   -2.7083 H   0  0  0  0  0  0  0  0  0  0  0  0
   -1.9611   -3.9164   -2.4393 H   0  0  0  0  0  0  0  0  0  0  0  0
   -0.7685   -5.2001   -2.6184 H   0  0  0  0  0  0  0  0  0  0  0  0
   -0.1877   -4.3335   -4.9105 H   0  0  0  0  0  0  0  0  0  0  0  0
   -1.4109   -3.0593   -4.7247 H   0  0  0  0  0  0  0  0  0  0  0  0
   -2.0331   -4.1902   -6.8931 H   0  0  0  0  0  0  0  0  0  0  0  0
   -3.7526   -6.1939   -6.0638 H   0  0  0  0  0  0  0  0  0  0  0  0
  1  2  1  0  0  0  0
  1 31  1  0  0  0  0
  1 32  1  0  0  0  0
  1 33  1  0  0  0  0
  2  3  1  0  0  0  0
  3  4  1  0  0  0  0
  3 20  2  0  0  0  0
  4  5  2  0  0  0  0
  4 34  1  0  0  0  0
  5  6  1  0  0  0  0
  5 18  1  0  0  0  0
  6  7  2  0  0  0  0
  7  8  1  0  0  0  0
  7 35  1  0  0  0  0
  8  9  2  0  0  0  0
  9 10  1  0  0  0  0
  9 18  1  0  0  0  0
 10 11  1  0  0  0  0
 10 36  1  0  0  0  0
 11 12  1  0  0  0  0
 11 17  2  0  0  0  0
 12 13  2  0  0  0  0
 12 37  1  0  0  0  0
 13 14  1  0  0  0  0
 13 38  1  0  0  0  0
 14 15  2  0  0  0  0
 14 39  1  0  0  0  0
 15 16  1  0  0  0  0
 15 17  1  0  0  0  0
 17 40  1  0  0  0  0
 18 19  2  0  0  0  0
 19 20  1  0  0  0  0
 19 41  1  0  0  0  0
 20 21  1  0  0  0  0
 21 22  1  0  0  0  0
 22 23  1  0  0  0  0
 22 42  1  0  0  0  0
 22 43  1  0  0  0  0
 23 24  1  0  0  0  0
 23 44  1  0  0  0  0
 23 45  1  0  0  0  0
 24 25  1  0  0  0  0
 24 46  1  0  0  0  0
 24 47  1  0  0  0  0
 25 26  1  0  0  0  0
 25 48  1  0  0  0  0
 25 49  1  0  0  0  0
 26 27  1  0  0  0  0
 26 50  1  0  0  0  0
 26 51  1  0  0  0  0
 27 28  2  0  0  0  0
 27 29  1  0  0  0  0
 29 30  1  0  0  0  0
 29 52  1  0  0  0  0
 30 53  1  0  0  0  0
M  END
$$$$
