CHEMBL3741655
 OpenBabel04072215373D

 57 62  0  0  0  0  0  0  0  0999 V2000
    2.1614    0.2231   -0.2801 C   0  0  0  0  0  0  0  0  0  0  0  0
    0.6988   -0.0428   -0.1503 C   0  0  0  0  0  0  0  0  0  0  0  0
   -0.1429    1.0382   -0.1056 N   0  0  0  0  0  0  0  0  0  0  0  0
   -1.4582    0.6700   -0.0351 C   0  0  0  0  0  0  0  0  0  0  0  0
   -2.4967    1.7191   -0.0081 C   0  0  0  0  0  0  0  0  0  0  0  0
   -3.7028    1.5716   -0.7003 C   0  0  0  0  0  0  0  0  0  0  0  0
   -4.7131    2.5345   -0.5973 C   0  0  0  0  0  0  0  0  0  0  0  0
   -4.5062    3.6860    0.1547 C   0  0  0  0  0  0  0  0  0  0  0  0
   -3.2901    3.8794    0.8022 C   0  0  0  0  0  0  0  0  0  0  0  0
   -2.2947    2.9008    0.7286 C   0  0  0  0  0  0  0  0  0  0  0  0
   -1.4829   -0.7337   -0.0248 C   0  0  0  0  0  0  0  0  0  0  0  0
   -2.7335   -1.5152    0.0747 C   0  0  0  0  0  0  0  0  0  0  0  0
   -2.9592   -2.6417   -0.7238 C   0  0  0  0  0  0  0  0  0  0  0  0
   -4.1212   -3.4109   -0.6013 C   0  0  0  0  0  0  0  0  0  0  0  0
   -5.1385   -3.0001    0.2546 C   0  0  0  0  0  0  0  0  0  0  0  0
   -4.9724   -1.8445    1.0042 C   0  0  0  0  0  0  0  0  0  0  0  0
   -3.7651   -1.1359    0.9502 C   0  0  0  0  0  0  0  0  0  0  0  0
   -0.0909   -1.1930   -0.0869 C   0  0  0  0  0  0  0  0  0  0  0  0
    0.4425   -2.5516   -0.1642 C   0  0  0  0  0  0  0  0  0  0  0  0
   -0.1483   -3.4836   -0.9631 N   0  0  0  0  0  0  0  0  0  0  0  0
    0.3421   -4.8481   -1.1681 N   0  0  0  0  0  0  0  0  0  0  0  0
    1.5078   -5.3227   -0.6386 C   0  0  0  0  0  0  0  0  0  0  0  0
    1.9026   -6.7372   -0.8707 C   0  0  0  0  0  0  0  0  0  0  0  0
    2.2040   -4.3616    0.1334 C   0  0  0  0  0  0  0  0  0  0  0  0
    3.4089   -4.4317    0.7386 N   0  0  0  0  0  0  0  0  0  0  0  0
    3.5870   -3.2162    1.3248 N   0  0  0  0  0  0  0  0  0  0  0  0
    4.8533   -2.8205    1.8469 C   0  0  0  0  0  0  0  0  0  0  0  0
    5.9465   -3.6927    1.7861 C   0  0  0  0  0  0  0  0  0  0  0  0
    7.1863   -3.3002    2.2991 C   0  0  0  0  0  0  0  0  0  0  0  0
    7.3390   -2.0341    2.8637 C   0  0  0  0  0  0  0  0  0  0  0  0
    8.8565   -1.5585    3.5172 Cl  0  0  0  0  0  0  0  0  0  0  0  0
    6.2684   -1.1494    2.9026 C   0  0  0  0  0  0  0  0  0  0  0  0
    5.0292   -1.5396    2.3952 C   0  0  0  0  0  0  0  0  0  0  0  0
    2.4419   -2.4706    1.3082 C   0  0  0  0  0  0  0  0  0  0  0  0
    1.6300   -3.0492    0.3755 C   0  0  0  0  0  0  0  0  0  0  0  0
    2.3499    1.2448   -0.6290 H   0  0  0  0  0  0  0  0  0  0  0  0
    2.6375   -0.4607   -0.9860 H   0  0  0  0  0  0  0  0  0  0  0  0
    2.6571    0.1511    0.6914 H   0  0  0  0  0  0  0  0  0  0  0  0
    0.1709    1.9988   -0.1565 H   0  0  0  0  0  0  0  0  0  0  0  0
   -3.8833    0.6875   -1.3095 H   0  0  0  0  0  0  0  0  0  0  0  0
   -5.6628    2.3690   -1.0965 H   0  0  0  0  0  0  0  0  0  0  0  0
   -5.2942    4.4280    0.2402 H   0  0  0  0  0  0  0  0  0  0  0  0
   -3.1191    4.7860    1.3784 H   0  0  0  0  0  0  0  0  0  0  0  0
   -1.3728    3.0655    1.2768 H   0  0  0  0  0  0  0  0  0  0  0  0
   -2.2454   -2.9452   -1.4801 H   0  0  0  0  0  0  0  0  0  0  0  0
   -4.2279   -4.3183   -1.1899 H   0  0  0  0  0  0  0  0  0  0  0  0
   -6.0573   -3.5763    0.3179 H   0  0  0  0  0  0  0  0  0  0  0  0
   -5.7810   -1.4883    1.6373 H   0  0  0  0  0  0  0  0  0  0  0  0
   -3.6621   -0.2533    1.5767 H   0  0  0  0  0  0  0  0  0  0  0  0
    1.1136   -7.2788   -1.4021 H   0  0  0  0  0  0  0  0  0  0  0  0
    2.0701   -7.2403    0.0874 H   0  0  0  0  0  0  0  0  0  0  0  0
    2.8205   -6.7861   -1.4648 H   0  0  0  0  0  0  0  0  0  0  0  0
    5.8513   -4.6824    1.3405 H   0  0  0  0  0  0  0  0  0  0  0  0
    8.0279   -3.9877    2.2596 H   0  0  0  0  0  0  0  0  0  0  0  0
    6.3859   -0.1554    3.3297 H   0  0  0  0  0  0  0  0  0  0  0  0
    4.2231   -0.8060    2.4295 H   0  0  0  0  0  0  0  0  0  0  0  0
    2.3273   -1.5657    1.8881 H   0  0  0  0  0  0  0  0  0  0  0  0
  1  2  1  0  0  0  0
  1 36  1  0  0  0  0
  1 37  1  0  0  0  0
  1 38  1  0  0  0  0
  2  3  1  0  0  0  0
  2 18  2  0  0  0  0
  3  4  1  0  0  0  0
  3 39  1  0  0  0  0
  4  5  1  0  0  0  0
  4 11  2  0  0  0  0
  5  6  1  0  0  0  0
  5 10  2  0  0  0  0
  6  7  2  0  0  0  0
  6 40  1  0  0  0  0
  7  8  1  0  0  0  0
  7 41  1  0  0  0  0
  8  9  2  0  0  0  0
  8 42  1  0  0  0  0
  9 10  1  0  0  0  0
  9 43  1  0  0  0  0
 10 44  1  0  0  0  0
 11 12  1  0  0  0  0
 11 18  1  0  0  0  0
 12 13  1  0  0  0  0
 12 17  2  0  0  0  0
 13 14  2  0  0  0  0
 13 45  1  0  0  0  0
 14 15  1  0  0  0  0
 14 46  1  0  0  0  0
 15 16  2  0  0  0  0
 15 47  1  0  0  0  0
 16 17  1  0  0  0  0
 16 48  1  0  0  0  0
 17 49  1  0  0  0  0
 18 19  1  0  0  0  0
 19 20  2  0  0  0  0
 19 35  1  0  0  0  0
 20 21  1  0  0  0  0
 21 22  2  0  0  0  0
 22 23  1  0  0  0  0
 22 24  1  0  0  0  0
 23 50  1  0  0  0  0
 23 51  1  0  0  0  0
 23 52  1  0  0  0  0
 24 25  2  0  0  0  0
 24 35  1  0  0  0  0
 25 26  1  0  0  0  0
 26 27  1  0  0  0  0
 26 34  1  0  0  0  0
 27 28  1  0  0  0  0
 27 33  2  0  0  0  0
 28 29  2  0  0  0  0
 28 53  1  0  0  0  0
 29 30  1  0  0  0  0
 29 54  1  0  0  0  0
 30 31  1  0  0  0  0
 30 32  2  0  0  0  0
 32 33  1  0  0  0  0
 32 55  1  0  0  0  0
 33 56  1  0  0  0  0
 34 35  2  0  0  0  0
 34 57  1  0  0  0  0
M  END
$$$$
