CHEMBL190960
 OpenBabel04072215363D

 42 44  0  0  0  0  0  0  0  0999 V2000
    3.0081   -3.4200    0.6002 C   0  0  0  0  0  0  0  0  0  0  0  0
    2.7276   -2.1078    1.0852 O   0  0  0  0  0  0  0  0  0  0  0  0
    2.9525   -2.0022    2.4860 C   0  0  0  0  0  0  0  0  0  0  0  0
    4.4188   -2.1808    2.8851 C   0  0  0  0  0  0  0  0  0  0  0  0
    4.7549   -3.0746    3.6578 O   0  0  0  0  0  0  0  0  0  0  0  0
    5.2681   -1.2579    2.2921 N   0  0  0  0  0  0  0  0  0  0  0  0
    6.6784   -1.3021    2.3410 C   0  0  0  0  0  0  0  0  0  0  0  0
    7.4035   -2.4239    2.7273 C   0  0  0  0  0  0  0  0  0  0  0  0
    8.7550   -2.4852    2.7549 N   0  0  0  0  0  0  0  0  0  0  0  0
    9.4183   -1.3626    2.4023 C   0  0  0  0  0  0  0  0  0  0  0  0
    8.8190   -0.1651    2.0173 C   0  0  0  0  0  0  0  0  0  0  0  0
    9.6118    1.0323    1.6999 C   0  0  0  0  0  0  0  0  0  0  0  0
   10.8395    1.3267    2.2932 C   0  0  0  0  0  0  0  0  0  0  0  0
   11.5590    2.4372    2.0070 N   0  0  0  0  0  0  0  0  0  0  0  0
   11.0013    3.2519    1.0814 C   0  0  0  0  0  0  0  0  0  0  0  0
    9.7818    2.9890    0.4576 C   0  0  0  0  0  0  0  0  0  0  0  0
    9.3087    3.8664   -0.5398 N   0  0  0  0  0  0  0  0  0  0  0  0
    8.4005    3.5443   -1.5690 C   0  0  0  0  0  0  0  0  0  0  0  0
    8.3841    2.2686   -2.1552 C   0  0  0  0  0  0  0  0  0  0  0  0
    7.5338    1.9697   -3.2206 C   0  0  0  0  0  0  0  0  0  0  0  0
    6.6841    2.9507   -3.7213 C   0  0  0  0  0  0  0  0  0  0  0  0
    6.6915    4.2211   -3.1500 C   0  0  0  0  0  0  0  0  0  0  0  0
    5.6393    5.4358   -3.7680 Cl  0  0  0  0  0  0  0  0  0  0  0  0
    7.5457    4.5238   -2.0867 C   0  0  0  0  0  0  0  0  0  0  0  0
    9.0794    1.8766    0.7808 N   0  0  0  0  0  0  0  0  0  0  0  0
    7.4094   -0.1693    1.9602 C   0  0  0  0  0  0  0  0  0  0  0  0
    2.7180   -3.4668   -0.4525 H   0  0  0  0  0  0  0  0  0  0  0  0
    2.4394   -4.1736    1.1544 H   0  0  0  0  0  0  0  0  0  0  0  0
    4.0792   -3.6335    0.6683 H   0  0  0  0  0  0  0  0  0  0  0  0
    2.3382   -2.7356    3.0225 H   0  0  0  0  0  0  0  0  0  0  0  0
    2.6266   -1.0081    2.8098 H   0  0  0  0  0  0  0  0  0  0  0  0
    4.8369   -0.4765    1.8103 H   0  0  0  0  0  0  0  0  0  0  0  0
    6.9246   -3.3574    3.0036 H   0  0  0  0  0  0  0  0  0  0  0  0
   10.4991   -1.4766    2.4355 H   0  0  0  0  0  0  0  0  0  0  0  0
   11.2906    0.6800    3.0385 H   0  0  0  0  0  0  0  0  0  0  0  0
   11.5885    4.1266    0.8221 H   0  0  0  0  0  0  0  0  0  0  0  0
    9.2238    4.8128   -0.1880 H   0  0  0  0  0  0  0  0  0  0  0  0
    9.0536    1.4913   -1.7927 H   0  0  0  0  0  0  0  0  0  0  0  0
    7.5469    0.9752   -3.6590 H   0  0  0  0  0  0  0  0  0  0  0  0
    6.0278    2.7211   -4.5558 H   0  0  0  0  0  0  0  0  0  0  0  0
    7.5336    5.5230   -1.6619 H   0  0  0  0  0  0  0  0  0  0  0  0
    6.8916    0.7328    1.6423 H   0  0  0  0  0  0  0  0  0  0  0  0
  1  2  1  0  0  0  0
  1 27  1  0  0  0  0
  1 28  1  0  0  0  0
  1 29  1  0  0  0  0
  2  3  1  0  0  0  0
  3  4  1  0  0  0  0
  3 30  1  0  0  0  0
  3 31  1  0  0  0  0
  4  5  2  0  0  0  0
  4  6  1  0  0  0  0
  6  7  1  0  0  0  0
  6 32  1  0  0  0  0
  7  8  1  0  0  0  0
  7 26  2  0  0  0  0
  8  9  2  0  0  0  0
  8 33  1  0  0  0  0
  9 10  1  0  0  0  0
 10 11  2  0  0  0  0
 10 34  1  0  0  0  0
 11 12  1  0  0  0  0
 11 26  1  0  0  0  0
 12 13  1  0  0  0  0
 12 25  2  0  0  0  0
 13 14  2  0  0  0  0
 13 35  1  0  0  0  0
 14 15  1  0  0  0  0
 15 16  2  0  0  0  0
 15 36  1  0  0  0  0
 16 17  1  0  0  0  0
 16 25  1  0  0  0  0
 17 18  1  0  0  0  0
 17 37  1  0  0  0  0
 18 19  1  0  0  0  0
 18 24  2  0  0  0  0
 19 20  2  0  0  0  0
 19 38  1  0  0  0  0
 20 21  1  0  0  0  0
 20 39  1  0  0  0  0
 21 22  2  0  0  0  0
 21 40  1  0  0  0  0
 22 23  1  0  0  0  0
 22 24  1  0  0  0  0
 24 41  1  0  0  0  0
 26 42  1  0  0  0  0
M  END
$$$$
