CHEMBL1242384
 OpenBabel04072215363D

 41 44  0  0  0  0  0  0  0  0999 V2000
    1.3739    0.9330    0.3866 C   0  0  0  0  0  0  0  0  0  0  0  0
    2.5710   -0.0020    0.2070 C   0  0  0  0  0  0  0  0  0  0  0  0
    3.6911    0.6849   -0.5742 C   0  0  0  0  0  0  0  0  0  0  0  0
    3.0353   -0.5219    1.4899 N   0  0  0  0  0  0  0  0  0  0  0  0
    3.5239    0.3173    2.4268 N   0  0  0  0  0  0  0  0  0  0  0  0
    3.8278   -0.4786    3.4717 C   0  0  0  0  0  0  0  0  0  0  0  0
    4.4421    0.0994    4.6754 C   0  0  0  0  0  0  0  0  0  0  0  0
    5.3542   -0.6346    5.4423 C   0  0  0  0  0  0  0  0  0  0  0  0
    5.9141   -0.1268    6.6188 C   0  0  0  0  0  0  0  0  0  0  0  0
    5.6149    1.1943    6.9644 C   0  0  0  0  0  0  0  0  0  0  0  0
    4.7596    1.9862    6.1948 C   0  0  0  0  0  0  0  0  0  0  0  0
    4.7329    3.2756    6.7930 C   0  0  0  0  0  0  0  0  0  0  0  0
    5.5528    3.2450    7.8983 C   0  0  0  0  0  0  0  0  0  0  0  0
    6.0580    1.9779    8.0092 N   0  0  0  0  0  0  0  0  0  0  0  0
    6.9609    1.5327    9.0477 C   0  0  0  0  0  0  0  0  0  0  0  0
    4.1485    1.4226    5.0542 C   0  0  0  0  0  0  0  0  0  0  0  0
    3.4717   -1.8405    3.1995 C   0  0  0  0  0  0  0  0  0  0  0  0
    3.4751   -3.0908    3.8421 C   0  0  0  0  0  0  0  0  0  0  0  0
    3.8489   -3.3224    5.1582 N   0  0  0  0  0  0  0  0  0  0  0  0
    3.0666   -4.1798    3.1525 N   0  0  0  0  0  0  0  0  0  0  0  0
    2.6526   -4.0190    1.8837 C   0  0  0  0  0  0  0  0  0  0  0  0
    2.5684   -2.8807    1.1804 N   0  0  0  0  0  0  0  0  0  0  0  0
    2.9960   -1.8262    1.8985 C   0  0  0  0  0  0  0  0  0  0  0  0
    0.9933    1.2659   -0.5840 H   0  0  0  0  0  0  0  0  0  0  0  0
    1.6409    1.8234    0.9664 H   0  0  0  0  0  0  0  0  0  0  0  0
    0.5583    0.4255    0.9123 H   0  0  0  0  0  0  0  0  0  0  0  0
    2.2356   -0.8633   -0.3820 H   0  0  0  0  0  0  0  0  0  0  0  0
    4.0727    1.5650   -0.0456 H   0  0  0  0  0  0  0  0  0  0  0  0
    3.3323    1.0125   -1.5549 H   0  0  0  0  0  0  0  0  0  0  0  0
    4.5316    0.0012   -0.7347 H   0  0  0  0  0  0  0  0  0  0  0  0
    5.6674   -1.6273    5.1277 H   0  0  0  0  0  0  0  0  0  0  0  0
    6.5904   -0.7343    7.2111 H   0  0  0  0  0  0  0  0  0  0  0  0
    4.1892    4.1405    6.4354 H   0  0  0  0  0  0  0  0  0  0  0  0
    5.8173    4.0222    8.6032 H   0  0  0  0  0  0  0  0  0  0  0  0
    7.1786    2.3630    9.7253 H   0  0  0  0  0  0  0  0  0  0  0  0
    7.8854    1.1867    8.5784 H   0  0  0  0  0  0  0  0  0  0  0  0
    6.4797    0.7211    9.5994 H   0  0  0  0  0  0  0  0  0  0  0  0
    3.4730    2.0281    4.4547 H   0  0  0  0  0  0  0  0  0  0  0  0
    3.6173   -2.5741    5.7995 H   0  0  0  0  0  0  0  0  0  0  0  0
    3.5576   -4.2492    5.4497 H   0  0  0  0  0  0  0  0  0  0  0  0
    2.3438   -4.9243    1.3692 H   0  0  0  0  0  0  0  0  0  0  0  0
  1  2  1  0  0  0  0
  1 24  1  0  0  0  0
  1 25  1  0  0  0  0
  1 26  1  0  0  0  0
  2  3  1  0  0  0  0
  2  4  1  0  0  0  0
  2 27  1  0  0  0  0
  3 28  1  0  0  0  0
  3 29  1  0  0  0  0
  3 30  1  0  0  0  0
  4  5  1  0  0  0  0
  4 23  1  0  0  0  0
  5  6  2  0  0  0  0
  6  7  1  0  0  0  0
  6 17  1  0  0  0  0
  7  8  1  0  0  0  0
  7 16  2  0  0  0  0
  8  9  2  0  0  0  0
  8 31  1  0  0  0  0
  9 10  1  0  0  0  0
  9 32  1  0  0  0  0
 10 11  2  0  0  0  0
 10 14  1  0  0  0  0
 11 12  1  0  0  0  0
 11 16  1  0  0  0  0
 12 13  2  0  0  0  0
 12 33  1  0  0  0  0
 13 14  1  0  0  0  0
 13 34  1  0  0  0  0
 14 15  1  0  0  0  0
 15 35  1  0  0  0  0
 15 36  1  0  0  0  0
 15 37  1  0  0  0  0
 16 38  1  0  0  0  0
 17 18  1  0  0  0  0
 17 23  2  0  0  0  0
 18 19  1  0  0  0  0
 18 20  2  0  0  0  0
 19 39  1  0  0  0  0
 19 40  1  0  0  0  0
 20 21  1  0  0  0  0
 21 22  2  0  0  0  0
 21 41  1  0  0  0  0
 22 23  1  0  0  0  0
M  END
$$$$
