CHEMBL3921243
 OpenBabel04072215373D

 59 63  0  0  0  0  0  0  0  0999 V2000
    0.7304   -2.7471   -3.5413 C   0  0  0  0  0  0  0  0  0  0  0  0
    2.0561   -3.2189   -3.2916 O   0  0  0  0  0  0  0  0  0  0  0  0
    2.8744   -2.4106   -2.5390 C   0  0  0  0  0  0  0  0  0  0  0  0
    2.4996   -1.1537   -2.0579 C   0  0  0  0  0  0  0  0  0  0  0  0
    3.3739   -0.4293   -1.2592 C   0  0  0  0  0  0  0  0  0  0  0  0
    3.1163    0.7945   -0.6998 O   0  0  0  0  0  0  0  0  0  0  0  0
    1.8597    1.3917   -1.0056 C   0  0  0  0  0  0  0  0  0  0  0  0
    4.6343   -0.9629   -0.9655 C   0  0  0  0  0  0  0  0  0  0  0  0
    5.0655   -2.2189   -1.4451 C   0  0  0  0  0  0  0  0  0  0  0  0
    6.3432   -2.7229   -1.0762 N   0  0  0  0  0  0  0  0  0  0  0  0
    6.7086   -2.4596    0.4308 C   0  0  0  0  0  0  0  0  0  0  0  0
    5.6698   -2.8380    1.5399 C   0  0  0  0  0  0  0  0  0  0  0  0
    6.0913   -2.4981    2.9125 N   0  0  0  0  0  0  0  0  0  0  0  0
    5.2865   -2.0796    3.9430 C   0  0  0  0  0  0  0  0  0  0  0  0
    6.0876   -1.9721    5.0599 C   0  0  0  0  0  0  0  0  0  0  0  0
    7.3600   -2.3692    4.6092 C   0  0  0  0  0  0  0  0  0  0  0  0
    7.3669   -2.6950    3.3139 N   0  0  0  0  0  0  0  0  0  0  0  0
    7.1575   -3.7592   -1.6933 C   0  0  0  0  0  0  0  0  0  0  0  0
    7.3522   -4.8475   -0.9033 C   0  0  0  0  0  0  0  0  0  0  0  0
    8.5475   -5.5044   -1.0167 C   0  0  0  0  0  0  0  0  0  0  0  0
    9.4556   -5.2505   -1.9865 C   0  0  0  0  0  0  0  0  0  0  0  0
   10.5448   -5.7772   -1.5145 N   0  0  0  0  0  0  0  0  0  0  0  0
   11.4652   -6.1666   -2.3614 C   0  0  0  0  0  0  0  0  0  0  0  0
   11.3994   -6.0170   -3.7001 C   0  0  0  0  0  0  0  0  0  0  0  0
   12.4398   -6.9334   -4.3568 C   0  0  0  0  0  0  0  0  0  0  0  0
   13.3515   -6.9102   -5.4594 C   0  0  0  0  0  0  0  0  0  0  0  0
   14.3246   -7.8510   -5.4183 N   0  0  0  0  0  0  0  0  0  0  0  0
   14.0930   -8.4991   -4.2703 N   0  0  0  0  0  0  0  0  0  0  0  0
   14.9876   -9.5266   -3.7367 C   0  0  0  0  0  0  0  0  0  0  0  0
   12.9690   -8.0328   -3.6452 C   0  0  0  0  0  0  0  0  0  0  0  0
   10.3618   -5.1473   -4.1821 N   0  0  0  0  0  0  0  0  0  0  0  0
    9.2497   -4.6386   -3.1995 C   0  0  0  0  0  0  0  0  0  0  0  0
    7.9978   -3.7047   -2.9194 C   0  0  0  0  0  0  0  0  0  0  0  0
    4.1557   -2.9287   -2.2445 C   0  0  0  0  0  0  0  0  0  0  0  0
    0.1829   -3.5273   -4.0787 H   0  0  0  0  0  0  0  0  0  0  0  0
    0.7436   -1.8540   -4.1768 H   0  0  0  0  0  0  0  0  0  0  0  0
    0.1872   -2.5530   -2.6085 H   0  0  0  0  0  0  0  0  0  0  0  0
    1.5299   -0.7418   -2.3014 H   0  0  0  0  0  0  0  0  0  0  0  0
    1.8141    2.3628   -0.5036 H   0  0  0  0  0  0  0  0  0  0  0  0
    1.0309    0.7835   -0.6267 H   0  0  0  0  0  0  0  0  0  0  0  0
    1.7589    1.5687   -2.0818 H   0  0  0  0  0  0  0  0  0  0  0  0
    5.2890   -0.3571   -0.3445 H   0  0  0  0  0  0  0  0  0  0  0  0
    6.9581   -1.3982    0.5316 H   0  0  0  0  0  0  0  0  0  0  0  0
    7.6485   -2.9691    0.6793 H   0  0  0  0  0  0  0  0  0  0  0  0
    5.4666   -3.9150    1.5680 H   0  0  0  0  0  0  0  0  0  0  0  0
    4.7130   -2.3244    1.4015 H   0  0  0  0  0  0  0  0  0  0  0  0
    4.2268   -1.9030    3.8184 H   0  0  0  0  0  0  0  0  0  0  0  0
    5.7974   -1.6685    6.0565 H   0  0  0  0  0  0  0  0  0  0  0  0
    8.2773   -2.4393    5.1851 H   0  0  0  0  0  0  0  0  0  0  0  0
    6.7752   -5.0743   -0.0162 H   0  0  0  0  0  0  0  0  0  0  0  0
    8.8159   -6.2122   -0.2523 H   0  0  0  0  0  0  0  0  0  0  0  0
   12.1971   -6.7680   -1.8457 H   0  0  0  0  0  0  0  0  0  0  0  0
   13.4090   -6.2187   -6.2971 H   0  0  0  0  0  0  0  0  0  0  0  0
   15.7943   -9.7461   -4.4403 H   0  0  0  0  0  0  0  0  0  0  0  0
   14.4106  -10.4382   -3.5406 H   0  0  0  0  0  0  0  0  0  0  0  0
   15.4257   -9.1812   -2.7933 H   0  0  0  0  0  0  0  0  0  0  0  0
   12.7153   -8.4817   -2.6976 H   0  0  0  0  0  0  0  0  0  0  0  0
    7.7512   -2.9487   -3.6656 H   0  0  0  0  0  0  0  0  0  0  0  0
    4.4099   -3.9191   -2.6133 H   0  0  0  0  0  0  0  0  0  0  0  0
  1  2  1  0  0  0  0
  1 35  1  0  0  0  0
  1 36  1  0  0  0  0
  1 37  1  0  0  0  0
  2  3  1  0  0  0  0
  3  4  1  0  0  0  0
  3 34  2  0  0  0  0
  4  5  2  0  0  0  0
  4 38  1  0  0  0  0
  5  6  1  0  0  0  0
  5  8  1  0  0  0  0
  6  7  1  0  0  0  0
  7 39  1  0  0  0  0
  7 40  1  0  0  0  0
  7 41  1  0  0  0  0
  8  9  2  0  0  0  0
  8 42  1  0  0  0  0
  9 10  1  0  0  0  0
  9 34  1  0  0  0  0
 10 11  1  0  0  0  0
 10 18  1  0  0  0  0
 11 12  1  0  0  0  0
 11 43  1  0  0  0  0
 11 44  1  0  0  0  0
 12 13  1  0  0  0  0
 12 45  1  0  0  0  0
 12 46  1  0  0  0  0
 13 14  1  0  0  0  0
 13 17  1  0  0  0  0
 14 15  2  0  0  0  0
 14 47  1  0  0  0  0
 15 16  1  0  0  0  0
 15 48  1  0  0  0  0
 16 17  2  0  0  0  0
 16 49  1  0  0  0  0
 18 19  1  0  0  0  0
 18 33  2  0  0  0  0
 19 20  2  0  0  0  0
 19 50  1  0  0  0  0
 20 21  1  0  0  0  0
 20 51  1  0  0  0  0
 21 22  1  0  0  0  0
 21 32  2  0  0  0  0
 22 23  2  0  0  0  0
 23 24  1  0  0  0  0
 23 52  1  0  0  0  0
 24 25  1  0  0  0  0
 24 31  2  0  0  0  0
 25 26  1  0  0  0  0
 25 30  2  0  0  0  0
 26 27  2  0  0  0  0
 26 53  1  0  0  0  0
 27 28  1  0  0  0  0
 28 29  1  0  0  0  0
 28 30  1  0  0  0  0
 29 54  1  0  0  0  0
 29 55  1  0  0  0  0
 29 56  1  0  0  0  0
 30 57  1  0  0  0  0
 31 32  1  0  0  0  0
 32 33  1  0  0  0  0
 33 58  1  0  0  0  0
 34 59  1  0  0  0  0
M  END
$$$$
