CHEMBL1091199
 OpenBabel04072215363D

 52 56  0  0  0  0  0  0  0  0999 V2000
   -1.8449   -2.1239    1.1101 C   0  0  0  0  0  0  0  0  0  0  0  0
   -1.0677   -1.0215    0.4414 C   0  0  0  0  0  0  0  0  0  0  0  0
   -1.6450    0.2548    0.3206 C   0  0  0  0  0  0  0  0  0  0  0  0
   -0.9418    1.3171   -0.2607 C   0  0  0  0  0  0  0  0  0  0  0  0
    0.3589    1.1182   -0.7288 C   0  0  0  0  0  0  0  0  0  0  0  0
    1.1655    2.2026   -1.3645 C   0  0  0  0  0  0  0  0  0  0  0  0
    2.0318    1.9077   -2.1793 O   0  0  0  0  0  0  0  0  0  0  0  0
    0.8944    3.5033   -0.9749 N   0  0  0  0  0  0  0  0  0  0  0  0
    1.6330    4.6108   -1.5046 C   0  0  0  0  0  0  0  0  0  0  0  0
    2.9205    5.0585   -0.8663 C   0  0  0  0  0  0  0  0  0  0  0  0
    1.6996    5.9243   -0.7725 C   0  0  0  0  0  0  0  0  0  0  0  0
    0.9318   -0.1581   -0.6379 C   0  0  0  0  0  0  0  0  0  0  0  0
    0.2353   -1.2316   -0.0545 C   0  0  0  0  0  0  0  0  0  0  0  0
    0.9133   -2.5379    0.0228 C   0  0  0  0  0  0  0  0  0  0  0  0
    0.7909   -3.4240   -0.9800 C   0  0  0  0  0  0  0  0  0  0  0  0
    1.5097   -4.6381   -0.9443 C   0  0  0  0  0  0  0  0  0  0  0  0
    1.6271   -5.6731   -1.8658 C   0  0  0  0  0  0  0  0  0  0  0  0
    2.4974   -6.5919   -1.4557 N   0  0  0  0  0  0  0  0  0  0  0  0
    2.9030   -6.1880   -0.2124 N   0  0  0  0  0  0  0  0  0  0  0  0
    3.6646   -7.1081    0.5558 C   0  0  0  0  0  0  0  0  0  0  0  0
    3.4906   -7.2169    1.9414 C   0  0  0  0  0  0  0  0  0  0  0  0
    4.2544   -8.1310    2.6736 C   0  0  0  0  0  0  0  0  0  0  0  0
    5.1451   -8.9723    2.0156 C   0  0  0  0  0  0  0  0  0  0  0  0
    5.8561   -9.8598    2.7223 F   0  0  0  0  0  0  0  0  0  0  0  0
    5.2985   -8.9125    0.6394 C   0  0  0  0  0  0  0  0  0  0  0  0
    4.5597   -7.9808   -0.0855 C   0  0  0  0  0  0  0  0  0  0  0  0
    4.7896   -7.9117   -1.4054 F   0  0  0  0  0  0  0  0  0  0  0  0
    2.3544   -4.9353    0.1042 C   0  0  0  0  0  0  0  0  0  0  0  0
    2.5796   -4.0406    1.1661 N   0  0  0  0  0  0  0  0  0  0  0  0
    3.5734   -4.1395    2.2139 C   0  0  0  0  0  0  0  0  0  0  0  0
    1.8122   -2.8555    1.1969 C   0  0  0  0  0  0  0  0  0  0  0  0
    1.8692   -2.0614    2.1395 O   0  0  0  0  0  0  0  0  0  0  0  0
   -2.8187   -1.7690    1.4645 H   0  0  0  0  0  0  0  0  0  0  0  0
   -1.2996   -2.5006    1.9814 H   0  0  0  0  0  0  0  0  0  0  0  0
   -2.0283   -2.9450    0.4100 H   0  0  0  0  0  0  0  0  0  0  0  0
   -2.6562    0.4309    0.6837 H   0  0  0  0  0  0  0  0  0  0  0  0
   -1.4379    2.2780   -0.3583 H   0  0  0  0  0  0  0  0  0  0  0  0
    0.2246    3.6860   -0.2406 H   0  0  0  0  0  0  0  0  0  0  0  0
    1.5919    4.6591   -2.5912 H   0  0  0  0  0  0  0  0  0  0  0  0
    3.7229    5.3722   -1.5244 H   0  0  0  0  0  0  0  0  0  0  0  0
    3.2587    4.5489    0.0279 H   0  0  0  0  0  0  0  0  0  0  0  0
    1.6822    6.8341   -1.3623 H   0  0  0  0  0  0  0  0  0  0  0  0
    1.2272    6.0160    0.1976 H   0  0  0  0  0  0  0  0  0  0  0  0
    1.9433   -0.3125   -1.0136 H   0  0  0  0  0  0  0  0  0  0  0  0
    0.1692   -3.2037   -1.8445 H   0  0  0  0  0  0  0  0  0  0  0  0
    1.1463   -5.8005   -2.8271 H   0  0  0  0  0  0  0  0  0  0  0  0
    2.7467   -6.6253    2.4669 H   0  0  0  0  0  0  0  0  0  0  0  0
    4.1493   -8.2028    3.7522 H   0  0  0  0  0  0  0  0  0  0  0  0
    5.9905   -9.5751    0.1327 H   0  0  0  0  0  0  0  0  0  0  0  0
    4.3552   -4.8580    1.9786 H   0  0  0  0  0  0  0  0  0  0  0  0
    3.0682   -4.3900    3.1528 H   0  0  0  0  0  0  0  0  0  0  0  0
    4.0682   -3.1710    2.3458 H   0  0  0  0  0  0  0  0  0  0  0  0
  1  2  1  0  0  0  0
  1 33  1  0  0  0  0
  1 34  1  0  0  0  0
  1 35  1  0  0  0  0
  2  3  1  0  0  0  0
  2 13  2  0  0  0  0
  3  4  2  0  0  0  0
  3 36  1  0  0  0  0
  4  5  1  0  0  0  0
  4 37  1  0  0  0  0
  5  6  1  0  0  0  0
  5 12  2  0  0  0  0
  6  7  2  0  0  0  0
  6  8  1  0  0  0  0
  8  9  1  0  0  0  0
  8 38  1  0  0  0  0
  9 10  1  0  0  0  0
  9 11  1  0  0  0  0
  9 39  1  0  0  0  0
 10 11  1  0  0  0  0
 10 40  1  0  0  0  0
 10 41  1  0  0  0  0
 11 42  1  0  0  0  0
 11 43  1  0  0  0  0
 12 13  1  0  0  0  0
 12 44  1  0  0  0  0
 13 14  1  0  0  0  0
 14 15  2  0  0  0  0
 14 31  1  0  0  0  0
 15 16  1  0  0  0  0
 15 45  1  0  0  0  0
 16 17  1  0  0  0  0
 16 28  2  0  0  0  0
 17 18  2  0  0  0  0
 17 46  1  0  0  0  0
 18 19  1  0  0  0  0
 19 20  1  0  0  0  0
 19 28  1  0  0  0  0
 20 21  1  0  0  0  0
 20 26  2  0  0  0  0
 21 22  2  0  0  0  0
 21 47  1  0  0  0  0
 22 23  1  0  0  0  0
 22 48  1  0  0  0  0
 23 24  1  0  0  0  0
 23 25  2  0  0  0  0
 25 26  1  0  0  0  0
 25 49  1  0  0  0  0
 26 27  1  0  0  0  0
 28 29  1  0  0  0  0
 29 30  1  0  0  0  0
 29 31  1  0  0  0  0
 30 50  1  0  0  0  0
 30 51  1  0  0  0  0
 30 52  1  0  0  0  0
 31 32  2  0  0  0  0
M  END
$$$$
