CHEMBL400749
 OpenBabel04072215373D

 51 55  0  0  0  0  0  0  0  0999 V2000
    5.1685   -1.0963   -3.8363 C   0  0  0  0  0  0  0  0  0  0  0  0
    5.6278   -0.1554   -2.8259 N   0  0  0  0  0  0  0  0  0  0  0  0
    5.0263   -0.4379   -1.5245 C   0  0  0  0  0  0  0  0  0  0  0  0
    5.4991    0.5352   -0.4789 C   0  0  0  0  0  0  0  0  0  0  0  0
    5.1658    1.8816   -0.5270 C   0  0  0  0  0  0  0  0  0  0  0  0
    5.5516    2.7940    0.3931 N   0  0  0  0  0  0  0  0  0  0  0  0
    6.3061    2.3383    1.4229 C   0  0  0  0  0  0  0  0  0  0  0  0
    6.7091    1.0149    1.5935 C   0  0  0  0  0  0  0  0  0  0  0  0
    7.4918    0.5563    2.7542 C   0  0  0  0  0  0  0  0  0  0  0  0
    8.4667    1.3380    3.3933 C   0  0  0  0  0  0  0  0  0  0  0  0
    9.2128    0.9980    4.4835 N   0  0  0  0  0  0  0  0  0  0  0  0
    8.9400   -0.2429    4.9245 C   0  0  0  0  0  0  0  0  0  0  0  0
    9.4985   -0.8825    5.9949 N   0  0  0  0  0  0  0  0  0  0  0  0
    8.9816   -2.1159    6.2321 N   0  0  0  0  0  0  0  0  0  0  0  0
    8.1428   -2.2890    5.1961 C   0  0  0  0  0  0  0  0  0  0  0  0
    7.4228   -3.5667    4.9358 C   0  0  0  0  0  0  0  0  0  0  0  0
    6.9021   -3.9118    3.7736 N   0  0  0  0  0  0  0  0  0  0  0  0
    6.4240   -5.1888    3.9475 C   0  0  0  0  0  0  0  0  0  0  0  0
    5.8559   -6.0681    3.0042 C   0  0  0  0  0  0  0  0  0  0  0  0
    5.7723   -5.7418    1.5378 C   0  0  0  0  0  0  0  0  0  0  0  0
    4.4235   -5.8510    1.0812 O   0  0  0  0  0  0  0  0  0  0  0  0
    4.3253   -5.5517   -0.3051 C   0  0  0  0  0  0  0  0  0  0  0  0
    5.4326   -7.3272    3.4807 C   0  0  0  0  0  0  0  0  0  0  0  0
    5.5716   -7.6916    4.8238 C   0  0  0  0  0  0  0  0  0  0  0  0
    6.1607   -6.8297    5.7525 C   0  0  0  0  0  0  0  0  0  0  0  0
    6.5887   -5.5948    5.2694 C   0  0  0  0  0  0  0  0  0  0  0  0
    7.2503   -4.5524    5.8667 N   0  0  0  0  0  0  0  0  0  0  0  0
    8.0365   -1.1362    4.3895 C   0  0  0  0  0  0  0  0  0  0  0  0
    7.2795   -0.7233    3.2873 C   0  0  0  0  0  0  0  0  0  0  0  0
    6.2850    0.1159    0.5993 C   0  0  0  0  0  0  0  0  0  0  0  0
    5.6074   -0.8296   -4.8030 H   0  0  0  0  0  0  0  0  0  0  0  0
    4.0795   -1.0735   -3.9446 H   0  0  0  0  0  0  0  0  0  0  0  0
    5.4863   -2.1164   -3.5997 H   0  0  0  0  0  0  0  0  0  0  0  0
    5.3821    0.7890   -3.1174 H   0  0  0  0  0  0  0  0  0  0  0  0
    5.2900   -1.4585   -1.2167 H   0  0  0  0  0  0  0  0  0  0  0  0
    3.9309   -0.3962   -1.5736 H   0  0  0  0  0  0  0  0  0  0  0  0
    4.5594    2.2823   -1.3342 H   0  0  0  0  0  0  0  0  0  0  0  0
    6.5672    3.1107    2.1422 H   0  0  0  0  0  0  0  0  0  0  0  0
    8.7019    2.3336    3.0186 H   0  0  0  0  0  0  0  0  0  0  0  0
   10.2254   -0.5227    6.6010 H   0  0  0  0  0  0  0  0  0  0  0  0
    6.4039   -6.4490    0.9852 H   0  0  0  0  0  0  0  0  0  0  0  0
    6.1416   -4.7281    1.3446 H   0  0  0  0  0  0  0  0  0  0  0  0
    3.2743   -5.6157   -0.5993 H   0  0  0  0  0  0  0  0  0  0  0  0
    4.8969   -6.2758   -0.8940 H   0  0  0  0  0  0  0  0  0  0  0  0
    4.6824   -4.5370   -0.5088 H   0  0  0  0  0  0  0  0  0  0  0  0
    4.9895   -8.0362    2.7826 H   0  0  0  0  0  0  0  0  0  0  0  0
    5.2292   -8.6721    5.1478 H   0  0  0  0  0  0  0  0  0  0  0  0
    6.2864   -7.1177    6.7904 H   0  0  0  0  0  0  0  0  0  0  0  0
    7.5590   -4.4904    6.8256 H   0  0  0  0  0  0  0  0  0  0  0  0
    6.5256   -1.3965    2.8896 H   0  0  0  0  0  0  0  0  0  0  0  0
    6.5678   -0.9340    0.6572 H   0  0  0  0  0  0  0  0  0  0  0  0
  1  2  1  0  0  0  0
  1 31  1  0  0  0  0
  1 32  1  0  0  0  0
  1 33  1  0  0  0  0
  2  3  1  0  0  0  0
  2 34  1  0  0  0  0
  3  4  1  0  0  0  0
  3 35  1  0  0  0  0
  3 36  1  0  0  0  0
  4  5  1  0  0  0  0
  4 30  2  0  0  0  0
  5  6  2  0  0  0  0
  5 37  1  0  0  0  0
  6  7  1  0  0  0  0
  7  8  2  0  0  0  0
  7 38  1  0  0  0  0
  8  9  1  0  0  0  0
  8 30  1  0  0  0  0
  9 10  1  0  0  0  0
  9 29  2  0  0  0  0
 10 11  2  0  0  0  0
 10 39  1  0  0  0  0
 11 12  1  0  0  0  0
 12 13  1  0  0  0  0
 12 28  2  0  0  0  0
 13 14  1  0  0  0  0
 13 40  1  0  0  0  0
 14 15  2  0  0  0  0
 15 16  1  0  0  0  0
 15 28  1  0  0  0  0
 16 17  2  0  0  0  0
 16 27  1  0  0  0  0
 17 18  1  0  0  0  0
 18 19  1  0  0  0  0
 18 26  2  0  0  0  0
 19 20  1  0  0  0  0
 19 23  2  0  0  0  0
 20 21  1  0  0  0  0
 20 41  1  0  0  0  0
 20 42  1  0  0  0  0
 21 22  1  0  0  0  0
 22 43  1  0  0  0  0
 22 44  1  0  0  0  0
 22 45  1  0  0  0  0
 23 24  1  0  0  0  0
 23 46  1  0  0  0  0
 24 25  2  0  0  0  0
 24 47  1  0  0  0  0
 25 26  1  0  0  0  0
 25 48  1  0  0  0  0
 26 27  1  0  0  0  0
 27 49  1  0  0  0  0
 28 29  1  0  0  0  0
 29 50  1  0  0  0  0
 30 51  1  0  0  0  0
M  END
$$$$
