CHEMBL476572
 OpenBabel04072215383D

 61 65  0  0  0  0  0  0  0  0999 V2000
    2.5363    1.4449   -1.0088 C   0  0  0  0  0  0  0  0  0  0  0  0
    2.7020    0.1070   -0.3920 C   0  0  0  0  0  0  0  0  0  0  0  0
    3.7726   -0.7527   -0.3665 C   0  0  0  0  0  0  0  0  0  0  0  0
    4.9963   -0.5342   -0.9826 C   0  0  0  0  0  0  0  0  0  0  0  0
    5.8730   -1.6182   -0.7756 C   0  0  0  0  0  0  0  0  0  0  0  0
    5.5650   -2.8005   -0.0120 C   0  0  0  0  0  0  0  0  0  0  0  0
    6.5264   -3.8275    0.1356 N   0  0  0  0  0  0  0  0  0  0  0  0
    7.9501   -3.4685    0.1431 C   0  0  0  0  0  0  0  0  0  0  0  0
    6.3355   -5.2197   -0.0432 C   0  0  0  0  0  0  0  0  0  0  0  0
    5.2796   -5.7219   -0.7684 C   0  0  0  0  0  0  0  0  0  0  0  0
    5.2412   -7.0890   -0.9393 C   0  0  0  0  0  0  0  0  0  0  0  0
    6.1476   -7.9403   -0.4274 N   0  0  0  0  0  0  0  0  0  0  0  0
    7.1524   -7.3806    0.2516 C   0  0  0  0  0  0  0  0  0  0  0  0
    8.1392   -8.2175    0.7616 N   0  0  0  0  0  0  0  0  0  0  0  0
    9.4287   -7.8697    1.1938 C   0  0  0  0  0  0  0  0  0  0  0  0
   10.0498   -8.5861    2.2245 C   0  0  0  0  0  0  0  0  0  0  0  0
   11.2706   -8.1571    2.7627 C   0  0  0  0  0  0  0  0  0  0  0  0
   11.8812   -6.9969    2.2837 C   0  0  0  0  0  0  0  0  0  0  0  0
   11.2650   -6.2762    1.2602 C   0  0  0  0  0  0  0  0  0  0  0  0
   11.9812   -4.7611    0.6842 S   0  0  0  0  0  0  0  0  0  0  0  0
   11.7955   -3.7813    2.0316 N   0  0  0  0  0  0  0  0  0  0  0  0
   13.3958   -4.9809    0.5109 O   0  0  0  0  0  0  0  0  0  0  0  0
   11.1394   -4.2021   -0.3470 O   0  0  0  0  0  0  0  0  0  0  0  0
   10.0690   -6.7240    0.7061 C   0  0  0  0  0  0  0  0  0  0  0  0
    7.2531   -6.0574    0.4617 N   0  0  0  0  0  0  0  0  0  0  0  0
    4.2923   -2.9613    0.6064 C   0  0  0  0  0  0  0  0  0  0  0  0
    3.3898   -1.9037    0.4009 C   0  0  0  0  0  0  0  0  0  0  0  0
    2.1256   -1.7512    0.8235 N   0  0  0  0  0  0  0  0  0  0  0  0
    1.7112   -0.5749    0.2840 N   0  0  0  0  0  0  0  0  0  0  0  0
    0.3118   -0.1829    0.4611 C   0  0  0  0  0  0  0  0  0  0  0  0
   -0.5379   -0.6289   -0.7068 C   0  0  0  0  0  0  0  0  0  0  0  0
   -0.6719   -1.9940   -1.0088 C   0  0  0  0  0  0  0  0  0  0  0  0
   -1.3662   -2.4075   -2.1456 C   0  0  0  0  0  0  0  0  0  0  0  0
   -1.9579   -1.4634   -2.9806 C   0  0  0  0  0  0  0  0  0  0  0  0
   -1.8859   -0.1090   -2.6596 C   0  0  0  0  0  0  0  0  0  0  0  0
   -1.1849    0.3079   -1.5254 C   0  0  0  0  0  0  0  0  0  0  0  0
    3.5097    1.9155   -1.1856 H   0  0  0  0  0  0  0  0  0  0  0  0
    1.9749    2.1216   -0.3591 H   0  0  0  0  0  0  0  0  0  0  0  0
    2.0235    1.3660   -1.9716 H   0  0  0  0  0  0  0  0  0  0  0  0
    5.2679    0.3317   -1.5688 H   0  0  0  0  0  0  0  0  0  0  0  0
    6.8457   -1.5451   -1.2618 H   0  0  0  0  0  0  0  0  0  0  0  0
    8.1273   -2.3975    0.2879 H   0  0  0  0  0  0  0  0  0  0  0  0
    8.4208   -3.7614   -0.8033 H   0  0  0  0  0  0  0  0  0  0  0  0
    8.4789   -3.9550    0.9715 H   0  0  0  0  0  0  0  0  0  0  0  0
    4.5420   -5.0869   -1.2362 H   0  0  0  0  0  0  0  0  0  0  0  0
    4.4578   -7.5493   -1.5361 H   0  0  0  0  0  0  0  0  0  0  0  0
    7.9082   -9.1948    0.6643 H   0  0  0  0  0  0  0  0  0  0  0  0
    9.5659   -9.4631    2.6481 H   0  0  0  0  0  0  0  0  0  0  0  0
   11.7295   -8.7171    3.5744 H   0  0  0  0  0  0  0  0  0  0  0  0
   12.8225   -6.6615    2.7116 H   0  0  0  0  0  0  0  0  0  0  0  0
   12.5472   -3.8968    2.7068 H   0  0  0  0  0  0  0  0  0  0  0  0
   10.8474   -3.7404    2.3961 H   0  0  0  0  0  0  0  0  0  0  0  0
    9.6239   -6.1649   -0.1139 H   0  0  0  0  0  0  0  0  0  0  0  0
    4.0290   -3.8206    1.2059 H   0  0  0  0  0  0  0  0  0  0  0  0
    0.2864    0.9041    0.5886 H   0  0  0  0  0  0  0  0  0  0  0  0
   -0.0514   -0.6285    1.3945 H   0  0  0  0  0  0  0  0  0  0  0  0
   -0.2057   -2.7447   -0.3712 H   0  0  0  0  0  0  0  0  0  0  0  0
   -1.4294   -3.4656   -2.3857 H   0  0  0  0  0  0  0  0  0  0  0  0
   -2.4744   -1.7841   -3.8814 H   0  0  0  0  0  0  0  0  0  0  0  0
   -2.3652    0.6244   -3.3032 H   0  0  0  0  0  0  0  0  0  0  0  0
   -1.1359    1.3706   -1.2993 H   0  0  0  0  0  0  0  0  0  0  0  0
  1  2  1  0  0  0  0
  1 37  1  0  0  0  0
  1 38  1  0  0  0  0
  1 39  1  0  0  0  0
  2  3  2  0  0  0  0
  2 29  1  0  0  0  0
  3  4  1  0  0  0  0
  3 27  1  0  0  0  0
  4  5  2  0  0  0  0
  4 40  1  0  0  0  0
  5  6  1  0  0  0  0
  5 41  1  0  0  0  0
  6  7  1  0  0  0  0
  6 26  2  0  0  0  0
  7  8  1  0  0  0  0
  7  9  1  0  0  0  0
  8 42  1  0  0  0  0
  8 43  1  0  0  0  0
  8 44  1  0  0  0  0
  9 10  1  0  0  0  0
  9 25  2  0  0  0  0
 10 11  2  0  0  0  0
 10 45  1  0  0  0  0
 11 12  1  0  0  0  0
 11 46  1  0  0  0  0
 12 13  2  0  0  0  0
 13 14  1  0  0  0  0
 13 25  1  0  0  0  0
 14 15  1  0  0  0  0
 14 47  1  0  0  0  0
 15 16  1  0  0  0  0
 15 24  2  0  0  0  0
 16 17  2  0  0  0  0
 16 48  1  0  0  0  0
 17 18  1  0  0  0  0
 17 49  1  0  0  0  0
 18 19  2  0  0  0  0
 18 50  1  0  0  0  0
 19 20  1  0  0  0  0
 19 24  1  0  0  0  0
 20 21  1  0  0  0  0
 20 22  2  0  0  0  0
 20 23  2  0  0  0  0
 21 51  1  0  0  0  0
 21 52  1  0  0  0  0
 24 53  1  0  0  0  0
 26 27  1  0  0  0  0
 26 54  1  0  0  0  0
 27 28  2  0  0  0  0
 28 29  1  0  0  0  0
 29 30  1  0  0  0  0
 30 31  1  0  0  0  0
 30 55  1  0  0  0  0
 30 56  1  0  0  0  0
 31 32  1  0  0  0  0
 31 36  2  0  0  0  0
 32 33  2  0  0  0  0
 32 57  1  0  0  0  0
 33 34  1  0  0  0  0
 33 58  1  0  0  0  0
 34 35  2  0  0  0  0
 34 59  1  0  0  0  0
 35 36  1  0  0  0  0
 35 60  1  0  0  0  0
 36 61  1  0  0  0  0
M  END
$$$$
