CHEMBL209971
 OpenBabel04072215363D

 69 74  0  0  0  0  0  0  0  0999 V2000
   -3.3673    4.3776    2.6081 C   0  0  0  0  0  0  0  0  0  0  0  0
   -2.3919    3.3520    2.9652 N   0  0  0  0  0  0  0  0  0  0  0  0
   -3.0566    2.1621    3.5146 C   0  0  0  0  0  0  0  0  0  0  0  0
   -2.0452    1.0383    3.8375 C   0  0  0  0  0  0  0  0  0  0  0  0
   -1.2374    0.5960    2.6806 N   0  0  0  0  0  0  0  0  0  0  0  0
   -2.0165   -0.0931    1.6385 C   0  0  0  0  0  0  0  0  0  0  0  0
   -2.7229   -1.3611    2.0807 C   0  0  0  0  0  0  0  0  0  0  0  0
   -2.0662   -2.6113    1.9683 C   0  0  0  0  0  0  0  0  0  0  0  0
   -2.7288   -3.8022    2.2666 C   0  0  0  0  0  0  0  0  0  0  0  0
   -4.0281   -3.7043    2.7101 C   0  0  0  0  0  0  0  0  0  0  0  0
   -4.6983   -2.4741    2.8919 C   0  0  0  0  0  0  0  0  0  0  0  0
   -4.0501   -1.2997    2.5578 C   0  0  0  0  0  0  0  0  0  0  0  0
   -6.1228   -2.6224    3.4529 C   0  0  0  0  0  0  0  0  0  0  0  0
   -6.1701   -4.1109    3.4739 C   0  0  0  0  0  0  0  0  0  0  0  0
   -4.9697   -4.7084    3.0509 C   0  0  0  0  0  0  0  0  0  0  0  0
   -4.9906   -6.0298    3.0313 N   0  0  0  0  0  0  0  0  0  0  0  0
   -6.2432   -6.2827    3.4718 N   0  0  0  0  0  0  0  0  0  0  0  0
   -6.9990   -5.1606    3.7761 C   0  0  0  0  0  0  0  0  0  0  0  0
   -8.3184   -5.2629    4.3215 C   0  0  0  0  0  0  0  0  0  0  0  0
   -9.0733   -4.3089    4.9739 C   0  0  0  0  0  0  0  0  0  0  0  0
  -10.2768   -4.8577    5.5295 C   0  0  0  0  0  0  0  0  0  0  0  0
  -10.4071   -6.2080    5.2652 C   0  0  0  0  0  0  0  0  0  0  0  0
  -11.3795   -7.2011    5.8204 C   0  0  0  0  0  0  0  0  0  0  0  0
  -12.6635   -7.3000    5.1246 N   0  0  0  0  0  0  0  0  0  0  0  0
  -12.7041   -7.2643    3.6664 C   0  0  0  0  0  0  0  0  0  0  0  0
  -13.6420   -7.9675    5.8803 C   0  0  0  0  0  0  0  0  0  0  0  0
  -13.4634   -8.2064    7.0723 O   0  0  0  0  0  0  0  0  0  0  0  0
  -14.7710   -8.3384    5.1885 N   0  0  0  0  0  0  0  0  0  0  0  0
  -15.9283   -8.9575    5.7201 C   0  0  0  0  0  0  0  0  0  0  0  0
  -16.2086   -9.0040    7.0894 C   0  0  0  0  0  0  0  0  0  0  0  0
  -17.3635   -9.6334    7.5604 C   0  0  0  0  0  0  0  0  0  0  0  0
  -18.2549  -10.2249    6.6690 C   0  0  0  0  0  0  0  0  0  0  0  0
  -18.0030  -10.1722    5.2989 C   0  0  0  0  0  0  0  0  0  0  0  0
  -16.8512   -9.5370    4.8285 C   0  0  0  0  0  0  0  0  0  0  0  0
  -16.5779   -9.5028    3.1165 Cl  0  0  0  0  0  0  0  0  0  0  0  0
   -9.1423   -6.7653    4.2639 S   0  0  0  0  0  0  0  0  0  0  0  0
   -0.5874    1.8045    2.1123 C   0  0  0  0  0  0  0  0  0  0  0  0
   -1.5490    2.9873    1.8108 C   0  0  0  0  0  0  0  0  0  0  0  0
   -3.9763    4.6477    3.4786 H   0  0  0  0  0  0  0  0  0  0  0  0
   -4.0415    4.0504    1.8082 H   0  0  0  0  0  0  0  0  0  0  0  0
   -2.8602    5.2915    2.2820 H   0  0  0  0  0  0  0  0  0  0  0  0
   -3.8178    1.7937    2.8135 H   0  0  0  0  0  0  0  0  0  0  0  0
   -3.5825    2.4256    4.4402 H   0  0  0  0  0  0  0  0  0  0  0  0
   -2.5549    0.1928    4.3106 H   0  0  0  0  0  0  0  0  0  0  0  0
   -1.3565    1.4075    4.6105 H   0  0  0  0  0  0  0  0  0  0  0  0
   -1.3299   -0.3763    0.8280 H   0  0  0  0  0  0  0  0  0  0  0  0
   -2.7573    0.5617    1.1665 H   0  0  0  0  0  0  0  0  0  0  0  0
   -1.0360   -2.6542    1.6210 H   0  0  0  0  0  0  0  0  0  0  0  0
   -2.2474   -4.7688    2.1531 H   0  0  0  0  0  0  0  0  0  0  0  0
   -4.5641   -0.3493    2.6545 H   0  0  0  0  0  0  0  0  0  0  0  0
   -6.8607   -2.1894    2.7733 H   0  0  0  0  0  0  0  0  0  0  0  0
   -6.1889   -2.1961    4.4577 H   0  0  0  0  0  0  0  0  0  0  0  0
   -6.5375   -7.2487    3.5651 H   0  0  0  0  0  0  0  0  0  0  0  0
   -8.7540   -3.2842    5.1270 H   0  0  0  0  0  0  0  0  0  0  0  0
  -10.9674   -4.3037    6.1562 H   0  0  0  0  0  0  0  0  0  0  0  0
  -11.5573   -6.9264    6.8682 H   0  0  0  0  0  0  0  0  0  0  0  0
  -10.9414   -8.2078    5.8383 H   0  0  0  0  0  0  0  0  0  0  0  0
  -11.9128   -6.6492    3.2393 H   0  0  0  0  0  0  0  0  0  0  0  0
  -13.6560   -6.8283    3.3459 H   0  0  0  0  0  0  0  0  0  0  0  0
  -12.6307   -8.2858    3.2792 H   0  0  0  0  0  0  0  0  0  0  0  0
  -14.7203   -8.3655    4.1801 H   0  0  0  0  0  0  0  0  0  0  0  0
  -15.5532   -8.5403    7.8196 H   0  0  0  0  0  0  0  0  0  0  0  0
  -17.5597   -9.6623    8.6303 H   0  0  0  0  0  0  0  0  0  0  0  0
  -19.1472  -10.7205    7.0413 H   0  0  0  0  0  0  0  0  0  0  0  0
  -18.7012  -10.6317    4.6042 H   0  0  0  0  0  0  0  0  0  0  0  0
   -0.0342    1.5425    1.2017 H   0  0  0  0  0  0  0  0  0  0  0  0
    0.1726    2.1484    2.8268 H   0  0  0  0  0  0  0  0  0  0  0  0
   -2.1742    2.7315    0.9456 H   0  0  0  0  0  0  0  0  0  0  0  0
   -0.9435    3.8542    1.5203 H   0  0  0  0  0  0  0  0  0  0  0  0
  1  2  1  0  0  0  0
  1 39  1  0  0  0  0
  1 40  1  0  0  0  0
  1 41  1  0  0  0  0
  2  3  1  0  0  0  0
  2 38  1  0  0  0  0
  3  4  1  0  0  0  0
  3 42  1  0  0  0  0
  3 43  1  0  0  0  0
  4  5  1  0  0  0  0
  4 44  1  0  0  0  0
  4 45  1  0  0  0  0
  5  6  1  0  0  0  0
  5 37  1  0  0  0  0
  6  7  1  0  0  0  0
  6 46  1  0  0  0  0
  6 47  1  0  0  0  0
  7  8  1  0  0  0  0
  7 12  2  0  0  0  0
  8  9  2  0  0  0  0
  8 48  1  0  0  0  0
  9 10  1  0  0  0  0
  9 49  1  0  0  0  0
 10 11  2  0  0  0  0
 10 15  1  0  0  0  0
 11 12  1  0  0  0  0
 11 13  1  0  0  0  0
 12 50  1  0  0  0  0
 13 14  1  0  0  0  0
 13 51  1  0  0  0  0
 13 52  1  0  0  0  0
 14 15  1  0  0  0  0
 14 18  2  0  0  0  0
 15 16  2  0  0  0  0
 16 17  1  0  0  0  0
 17 18  1  0  0  0  0
 17 53  1  0  0  0  0
 18 19  1  0  0  0  0
 19 20  2  0  0  0  0
 19 36  1  0  0  0  0
 20 21  1  0  0  0  0
 20 54  1  0  0  0  0
 21 22  2  0  0  0  0
 21 55  1  0  0  0  0
 22 23  1  0  0  0  0
 22 36  1  0  0  0  0
 23 24  1  0  0  0  0
 23 56  1  0  0  0  0
 23 57  1  0  0  0  0
 24 25  1  0  0  0  0
 24 26  1  0  0  0  0
 25 58  1  0  0  0  0
 25 59  1  0  0  0  0
 25 60  1  0  0  0  0
 26 27  2  0  0  0  0
 26 28  1  0  0  0  0
 28 29  1  0  0  0  0
 28 61  1  0  0  0  0
 29 30  1  0  0  0  0
 29 34  2  0  0  0  0
 30 31  2  0  0  0  0
 30 62  1  0  0  0  0
 31 32  1  0  0  0  0
 31 63  1  0  0  0  0
 32 33  2  0  0  0  0
 32 64  1  0  0  0  0
 33 34  1  0  0  0  0
 33 65  1  0  0  0  0
 34 35  1  0  0  0  0
 37 38  1  0  0  0  0
 37 66  1  0  0  0  0
 37 67  1  0  0  0  0
 38 68  1  0  0  0  0
 38 69  1  0  0  0  0
M  END
$$$$
