CHEMBL3287588
 OpenBabel04072215363D

 70 74  0  0  0  0  0  0  0  0999 V2000
    5.2058   -5.4195   -4.0804 C   0  0  0  0  0  0  0  0  0  0  0  0
    4.7906   -4.0418   -4.5208 C   0  0  0  0  0  0  0  0  0  0  0  0
    4.5095   -3.8176   -5.8791 C   0  0  0  0  0  0  0  0  0  0  0  0
    4.1163   -2.5578   -6.3347 C   0  0  0  0  0  0  0  0  0  0  0  0
    4.0351   -1.4814   -5.4490 C   0  0  0  0  0  0  0  0  0  0  0  0
    3.6724   -0.1046   -5.9296 C   0  0  0  0  0  0  0  0  0  0  0  0
    1.9068    0.1781   -5.8999 S   0  0  0  0  0  0  0  0  0  0  0  0
    1.4206    0.0113   -4.1955 C   0  0  0  0  0  0  0  0  0  0  0  0
    1.7048    1.5753   -6.2485 O   0  0  0  0  0  0  0  0  0  0  0  0
    1.2365   -0.8551   -6.6674 O   0  0  0  0  0  0  0  0  0  0  0  0
    4.3292   -1.7047   -4.0976 C   0  0  0  0  0  0  0  0  0  0  0  0
    4.6561   -2.9811   -3.6064 C   0  0  0  0  0  0  0  0  0  0  0  0
    4.9165   -3.1722   -2.2333 N   0  0  0  0  0  0  0  0  0  0  0  0
    4.2778   -2.5101   -1.1755 C   0  0  0  0  0  0  0  0  0  0  0  0
    3.0213   -2.0519   -1.3368 N   0  0  0  0  0  0  0  0  0  0  0  0
    2.4365   -1.4423   -0.2917 C   0  0  0  0  0  0  0  0  0  0  0  0
    3.0617   -1.2452    0.9066 C   0  0  0  0  0  0  0  0  0  0  0  0
    4.3529   -1.7045    0.9618 C   0  0  0  0  0  0  0  0  0  0  0  0
    5.0261   -1.4574    2.1563 O   0  0  0  0  0  0  0  0  0  0  0  0
    6.3957   -1.4133    2.0921 C   0  0  0  0  0  0  0  0  0  0  0  0
    7.0994   -2.1271    3.0567 C   0  0  0  0  0  0  0  0  0  0  0  0
    8.4937   -2.1799    2.9977 C   0  0  0  0  0  0  0  0  0  0  0  0
    9.1900   -1.5151    1.9821 C   0  0  0  0  0  0  0  0  0  0  0  0
   10.5810   -1.6134    1.8148 N   0  0  0  0  0  0  0  0  0  0  0  0
   11.4126   -2.5333    2.4224 C   0  0  0  0  0  0  0  0  0  0  0  0
   11.0970   -3.4555    3.1621 O   0  0  0  0  0  0  0  0  0  0  0  0
   12.8565   -2.3359    2.1047 C   0  0  0  0  0  0  0  0  0  0  0  0
   13.5089   -1.3417    2.9979 C   0  0  0  0  0  0  0  0  0  0  0  0
   13.3520   -0.1558    2.7450 O   0  0  0  0  0  0  0  0  0  0  0  0
   14.2633   -1.8495    4.0440 N   0  0  0  0  0  0  0  0  0  0  0  0
   14.8755   -0.9926    4.9790 C   0  0  0  0  0  0  0  0  0  0  0  0
   14.1651    0.0743    5.5457 C   0  0  0  0  0  0  0  0  0  0  0  0
   14.8103    0.9813    6.3848 C   0  0  0  0  0  0  0  0  0  0  0  0
   16.1670    0.8267    6.6333 C   0  0  0  0  0  0  0  0  0  0  0  0
   16.8073    1.7346    7.3810 F   0  0  0  0  0  0  0  0  0  0  0  0
   16.8741   -0.2512    6.1077 C   0  0  0  0  0  0  0  0  0  0  0  0
   16.2183   -1.1897    5.3069 C   0  0  0  0  0  0  0  0  0  0  0  0
   13.2984   -2.3392    0.6390 C   0  0  0  0  0  0  0  0  0  0  0  0
   13.6151   -3.5150    1.5052 C   0  0  0  0  0  0  0  0  0  0  0  0
    8.4854   -0.7119    1.0831 C   0  0  0  0  0  0  0  0  0  0  0  0
    7.0962   -0.6603    1.1482 C   0  0  0  0  0  0  0  0  0  0  0  0
    6.4434    0.1204    0.2737 F   0  0  0  0  0  0  0  0  0  0  0  0
    4.9712   -2.3670   -0.0410 N   0  0  0  0  0  0  0  0  0  0  0  0
    5.0922   -6.1482   -4.8914 H   0  0  0  0  0  0  0  0  0  0  0  0
    4.5848   -5.7660   -3.2486 H   0  0  0  0  0  0  0  0  0  0  0  0
    6.2578   -5.4195   -3.7780 H   0  0  0  0  0  0  0  0  0  0  0  0
    4.5815   -4.6341   -6.5956 H   0  0  0  0  0  0  0  0  0  0  0  0
    3.8823   -2.4275   -7.3904 H   0  0  0  0  0  0  0  0  0  0  0  0
    4.0051    0.0466   -6.9619 H   0  0  0  0  0  0  0  0  0  0  0  0
    4.1449    0.6677   -5.3139 H   0  0  0  0  0  0  0  0  0  0  0  0
    2.0516    0.6579   -3.5822 H   0  0  0  0  0  0  0  0  0  0  0  0
    1.5025   -1.0310   -3.8883 H   0  0  0  0  0  0  0  0  0  0  0  0
    0.3798    0.3352   -4.1122 H   0  0  0  0  0  0  0  0  0  0  0  0
    4.2936   -0.8684   -3.4019 H   0  0  0  0  0  0  0  0  0  0  0  0
    5.9024   -3.2331   -2.0102 H   0  0  0  0  0  0  0  0  0  0  0  0
    1.4202   -1.1017   -0.4623 H   0  0  0  0  0  0  0  0  0  0  0  0
    2.5858   -0.7479    1.7385 H   0  0  0  0  0  0  0  0  0  0  0  0
    6.5730   -2.6648    3.8408 H   0  0  0  0  0  0  0  0  0  0  0  0
    9.0118   -2.7484    3.7648 H   0  0  0  0  0  0  0  0  0  0  0  0
   11.0150   -0.9673    1.1628 H   0  0  0  0  0  0  0  0  0  0  0  0
   14.6065   -2.7971    3.9607 H   0  0  0  0  0  0  0  0  0  0  0  0
   13.1046    0.2039    5.3415 H   0  0  0  0  0  0  0  0  0  0  0  0
   14.2685    1.8142    6.8207 H   0  0  0  0  0  0  0  0  0  0  0  0
   17.9378   -0.3364    6.3036 H   0  0  0  0  0  0  0  0  0  0  0  0
   16.7849   -2.0089    4.8749 H   0  0  0  0  0  0  0  0  0  0  0  0
   14.1189   -1.6895    0.3484 H   0  0  0  0  0  0  0  0  0  0  0  0
   12.5467   -2.4631   -0.1326 H   0  0  0  0  0  0  0  0  0  0  0  0
   14.6513   -3.6821    1.7660 H   0  0  0  0  0  0  0  0  0  0  0  0
   13.0598   -4.4312    1.3232 H   0  0  0  0  0  0  0  0  0  0  0  0
    8.9853   -0.1521    0.3004 H   0  0  0  0  0  0  0  0  0  0  0  0
  1  2  1  0  0  0  0
  1 44  1  0  0  0  0
  1 45  1  0  0  0  0
  1 46  1  0  0  0  0
  2  3  1  0  0  0  0
  2 12  2  0  0  0  0
  3  4  2  0  0  0  0
  3 47  1  0  0  0  0
  4  5  1  0  0  0  0
  4 48  1  0  0  0  0
  5  6  1  0  0  0  0
  5 11  2  0  0  0  0
  6  7  1  0  0  0  0
  6 49  1  0  0  0  0
  6 50  1  0  0  0  0
  7  8  1  0  0  0  0
  7  9  2  0  0  0  0
  7 10  2  0  0  0  0
  8 51  1  0  0  0  0
  8 52  1  0  0  0  0
  8 53  1  0  0  0  0
 11 12  1  0  0  0  0
 11 54  1  0  0  0  0
 12 13  1  0  0  0  0
 13 14  1  0  0  0  0
 13 55  1  0  0  0  0
 14 15  1  0  0  0  0
 14 43  2  0  0  0  0
 15 16  2  0  0  0  0
 16 17  1  0  0  0  0
 16 56  1  0  0  0  0
 17 18  2  0  0  0  0
 17 57  1  0  0  0  0
 18 19  1  0  0  0  0
 18 43  1  0  0  0  0
 19 20  1  0  0  0  0
 20 21  1  0  0  0  0
 20 41  2  0  0  0  0
 21 22  2  0  0  0  0
 21 58  1  0  0  0  0
 22 23  1  0  0  0  0
 22 59  1  0  0  0  0
 23 24  1  0  0  0  0
 23 40  2  0  0  0  0
 24 25  1  0  0  0  0
 24 60  1  0  0  0  0
 25 26  2  0  0  0  0
 25 27  1  0  0  0  0
 27 28  1  0  0  0  0
 27 38  1  0  0  0  0
 27 39  1  0  0  0  0
 28 29  2  0  0  0  0
 28 30  1  0  0  0  0
 30 31  1  0  0  0  0
 30 61  1  0  0  0  0
 31 32  1  0  0  0  0
 31 37  2  0  0  0  0
 32 33  2  0  0  0  0
 32 62  1  0  0  0  0
 33 34  1  0  0  0  0
 33 63  1  0  0  0  0
 34 35  1  0  0  0  0
 34 36  2  0  0  0  0
 36 37  1  0  0  0  0
 36 64  1  0  0  0  0
 37 65  1  0  0  0  0
 38 39  1  0  0  0  0
 38 66  1  0  0  0  0
 38 67  1  0  0  0  0
 39 68  1  0  0  0  0
 39 69  1  0  0  0  0
 40 41  1  0  0  0  0
 40 70  1  0  0  0  0
 41 42  1  0  0  0  0
M  END
$$$$
