CHEMBL3809077
 OpenBabel04072215373D

 44 46  0  0  0  0  0  0  0  0999 V2000
    4.5981    8.0573   -2.8977 C   0  0  0  0  0  0  0  0  0  0  0  0
    3.9571    7.5559   -4.2019 C   0  0  0  0  0  0  0  0  0  0  0  0
    2.4304    7.7299   -4.1345 C   0  0  0  0  0  0  0  0  0  0  0  0
    4.5001    8.3919   -5.3767 C   0  0  0  0  0  0  0  0  0  0  0  0
    4.2737    6.1011   -4.3798 C   0  0  0  0  0  0  0  0  0  0  0  0
    4.0425    4.9720   -3.6269 C   0  0  0  0  0  0  0  0  0  0  0  0
    4.5459    3.9156   -4.4119 C   0  0  0  0  0  0  0  0  0  0  0  0
    4.4722    2.5854   -4.0740 N   0  0  0  0  0  0  0  0  0  0  0  0
    4.8826    1.5137   -4.8168 C   0  0  0  0  0  0  0  0  0  0  0  0
    4.6496    0.3919   -4.3689 O   0  0  0  0  0  0  0  0  0  0  0  0
    5.5417    1.7978   -5.9843 N   0  0  0  0  0  0  0  0  0  0  0  0
    6.0546    0.8845   -6.9125 C   0  0  0  0  0  0  0  0  0  0  0  0
    5.6412   -0.4410   -6.9575 C   0  0  0  0  0  0  0  0  0  0  0  0
    6.2610   -1.3399   -7.8217 C   0  0  0  0  0  0  0  0  0  0  0  0
    7.3070   -0.9305   -8.6592 C   0  0  0  0  0  0  0  0  0  0  0  0
    8.0269   -1.9160   -9.4663 C   0  0  0  0  0  0  0  0  0  0  0  0
    7.7904   -3.3167   -9.5320 C   0  0  0  0  0  0  0  0  0  0  0  0
    8.7462   -3.7973  -10.3790 C   0  0  0  0  0  0  0  0  0  0  0  0
    9.0250   -5.0333  -10.8152 N   0  0  0  0  0  0  0  0  0  0  0  0
    9.5194   -2.7695  -10.8101 O   0  0  0  0  0  0  0  0  0  0  0  0
    9.0750   -1.5875  -10.2416 N   0  0  0  0  0  0  0  0  0  0  0  0
    7.6630    0.4262   -8.6659 C   0  0  0  0  0  0  0  0  0  0  0  0
    7.0301    1.3317   -7.8090 C   0  0  0  0  0  0  0  0  0  0  0  0
    5.0947    4.3823   -5.5384 N   0  0  0  0  0  0  0  0  0  0  0  0
    4.9127    5.7412   -5.5230 O   0  0  0  0  0  0  0  0  0  0  0  0
    4.4065    9.1248   -2.7471 H   0  0  0  0  0  0  0  0  0  0  0  0
    5.6847    7.9080   -2.9091 H   0  0  0  0  0  0  0  0  0  0  0  0
    4.2057    7.5225   -2.0246 H   0  0  0  0  0  0  0  0  0  0  0  0
    2.1551    8.7844   -4.0220 H   0  0  0  0  0  0  0  0  0  0  0  0
    1.9984    7.1808   -3.2896 H   0  0  0  0  0  0  0  0  0  0  0  0
    1.9487    7.3525   -5.0457 H   0  0  0  0  0  0  0  0  0  0  0  0
    4.2701    9.4565   -5.2457 H   0  0  0  0  0  0  0  0  0  0  0  0
    4.0621    8.0740   -6.3301 H   0  0  0  0  0  0  0  0  0  0  0  0
    5.5883    8.2954   -5.4661 H   0  0  0  0  0  0  0  0  0  0  0  0
    3.5541    4.9208   -2.6652 H   0  0  0  0  0  0  0  0  0  0  0  0
    4.0177    2.3339   -3.2087 H   0  0  0  0  0  0  0  0  0  0  0  0
    5.8072    2.7710   -6.1049 H   0  0  0  0  0  0  0  0  0  0  0  0
    4.8379   -0.8057   -6.3257 H   0  0  0  0  0  0  0  0  0  0  0  0
    5.9181   -2.3690   -7.7979 H   0  0  0  0  0  0  0  0  0  0  0  0
    7.0372   -3.8964   -9.0243 H   0  0  0  0  0  0  0  0  0  0  0  0
    8.6544   -5.8485  -10.3345 H   0  0  0  0  0  0  0  0  0  0  0  0
    9.9194   -5.1920  -11.2686 H   0  0  0  0  0  0  0  0  0  0  0  0
    8.4581    0.7871   -9.3186 H   0  0  0  0  0  0  0  0  0  0  0  0
    7.3464    2.3727   -7.8158 H   0  0  0  0  0  0  0  0  0  0  0  0
  1  2  1  0  0  0  0
  1 26  1  0  0  0  0
  1 27  1  0  0  0  0
  1 28  1  0  0  0  0
  2  3  1  0  0  0  0
  2  4  1  0  0  0  0
  2  5  1  0  0  0  0
  3 29  1  0  0  0  0
  3 30  1  0  0  0  0
  3 31  1  0  0  0  0
  4 32  1  0  0  0  0
  4 33  1  0  0  0  0
  4 34  1  0  0  0  0
  5  6  2  0  0  0  0
  5 25  1  0  0  0  0
  6  7  1  0  0  0  0
  6 35  1  0  0  0  0
  7  8  1  0  0  0  0
  7 24  2  0  0  0  0
  8  9  1  0  0  0  0
  8 36  1  0  0  0  0
  9 10  2  0  0  0  0
  9 11  1  0  0  0  0
 11 12  1  0  0  0  0
 11 37  1  0  0  0  0
 12 13  1  0  0  0  0
 12 23  2  0  0  0  0
 13 14  2  0  0  0  0
 13 38  1  0  0  0  0
 14 15  1  0  0  0  0
 14 39  1  0  0  0  0
 15 16  1  0  0  0  0
 15 22  2  0  0  0  0
 16 17  1  0  0  0  0
 16 21  2  0  0  0  0
 17 18  2  0  0  0  0
 17 40  1  0  0  0  0
 18 19  1  0  0  0  0
 18 20  1  0  0  0  0
 19 41  1  0  0  0  0
 19 42  1  0  0  0  0
 20 21  1  0  0  0  0
 22 23  1  0  0  0  0
 22 43  1  0  0  0  0
 23 44  1  0  0  0  0
 24 25  1  0  0  0  0
M  END
$$$$
