CHEMBL3937972
 OpenBabel04072215373D

 62 65  0  0  0  0  0  0  0  0999 V2000
    0.5293   -2.4305   -3.0122 C   0  0  0  0  0  0  0  0  0  0  0  0
    1.8000   -3.0619   -2.8269 O   0  0  0  0  0  0  0  0  0  0  0  0
    2.8021   -2.3006   -2.2718 C   0  0  0  0  0  0  0  0  0  0  0  0
    2.6703   -0.9465   -1.9620 C   0  0  0  0  0  0  0  0  0  0  0  0
    3.7214   -0.2688   -1.3530 C   0  0  0  0  0  0  0  0  0  0  0  0
    3.7055    1.0464   -0.9719 O   0  0  0  0  0  0  0  0  0  0  0  0
    2.5710    1.8146   -1.3549 C   0  0  0  0  0  0  0  0  0  0  0  0
    4.9063   -0.9502   -1.0454 C   0  0  0  0  0  0  0  0  0  0  0  0
    5.0871   -2.3104   -1.3367 C   0  0  0  0  0  0  0  0  0  0  0  0
    6.2058   -3.0420   -0.8575 N   0  0  0  0  0  0  0  0  0  0  0  0
    6.7454   -2.6262    0.5032 C   0  0  0  0  0  0  0  0  0  0  0  0
    5.7409   -2.7289    1.6659 C   0  0  0  0  0  0  0  0  0  0  0  0
    6.3703   -2.2837    2.9851 C   0  0  0  0  0  0  0  0  0  0  0  0
    7.5429   -1.9426    3.1097 O   0  0  0  0  0  0  0  0  0  0  0  0
    5.4851   -2.2598    4.0522 N   0  0  0  0  0  0  0  0  0  0  0  0
    5.8768   -1.8266    5.4081 C   0  0  0  0  0  0  0  0  0  0  0  0
    6.3652   -2.9146    6.3810 C   0  0  0  0  0  0  0  0  0  0  0  0
    6.4175   -4.1364    5.8068 F   0  0  0  0  0  0  0  0  0  0  0  0
    7.5882   -2.6330    6.8805 F   0  0  0  0  0  0  0  0  0  0  0  0
    5.5171   -3.0107    7.4370 F   0  0  0  0  0  0  0  0  0  0  0  0
    7.2937   -3.6248   -1.6127 C   0  0  0  0  0  0  0  0  0  0  0  0
    7.7841   -4.8240   -1.0919 C   0  0  0  0  0  0  0  0  0  0  0  0
    9.0806   -5.2189   -1.3546 C   0  0  0  0  0  0  0  0  0  0  0  0
    9.8837   -4.5151   -2.2077 C   0  0  0  0  0  0  0  0  0  0  0  0
   11.1669   -4.9159   -2.2052 N   0  0  0  0  0  0  0  0  0  0  0  0
   11.9757   -4.3621   -3.1173 C   0  0  0  0  0  0  0  0  0  0  0  0
   11.5107   -3.4857   -4.0762 C   0  0  0  0  0  0  0  0  0  0  0  0
   12.4166   -3.2189   -5.1904 C   0  0  0  0  0  0  0  0  0  0  0  0
   12.5166   -3.8784   -6.4462 C   0  0  0  0  0  0  0  0  0  0  0  0
   13.6243   -3.5448   -7.1233 N   0  0  0  0  0  0  0  0  0  0  0  0
   14.2444   -2.6861   -6.2975 N   0  0  0  0  0  0  0  0  0  0  0  0
   15.3250   -1.8563   -6.7776 C   0  0  0  0  0  0  0  0  0  0  0  0
   13.6531   -2.6106   -5.0648 C   0  0  0  0  0  0  0  0  0  0  0  0
   10.2265   -2.9887   -4.0240 N   0  0  0  0  0  0  0  0  0  0  0  0
    9.3743   -3.4742   -3.0227 C   0  0  0  0  0  0  0  0  0  0  0  0
    8.0523   -3.0093   -2.6511 C   0  0  0  0  0  0  0  0  0  0  0  0
    4.0144   -2.9677   -1.9784 C   0  0  0  0  0  0  0  0  0  0  0  0
   -0.1708   -3.1683   -3.4175 H   0  0  0  0  0  0  0  0  0  0  0  0
    0.5941   -1.6100   -3.7362 H   0  0  0  0  0  0  0  0  0  0  0  0
    0.1144   -2.0767   -2.0605 H   0  0  0  0  0  0  0  0  0  0  0  0
    1.7483   -0.4237   -2.1804 H   0  0  0  0  0  0  0  0  0  0  0  0
    2.7568    2.8522   -1.0640 H   0  0  0  0  0  0  0  0  0  0  0  0
    1.6723    1.4756   -0.8284 H   0  0  0  0  0  0  0  0  0  0  0  0
    2.4244    1.7952   -2.4401 H   0  0  0  0  0  0  0  0  0  0  0  0
    5.6890   -0.3883   -0.5459 H   0  0  0  0  0  0  0  0  0  0  0  0
    7.1824   -1.6229    0.4380 H   0  0  0  0  0  0  0  0  0  0  0  0
    7.5850   -3.2720    0.7954 H   0  0  0  0  0  0  0  0  0  0  0  0
    5.4056   -3.7658    1.7865 H   0  0  0  0  0  0  0  0  0  0  0  0
    4.8596   -2.1048    1.4899 H   0  0  0  0  0  0  0  0  0  0  0  0
    4.5653   -2.6670    3.9326 H   0  0  0  0  0  0  0  0  0  0  0  0
    4.9863   -1.3522    5.8373 H   0  0  0  0  0  0  0  0  0  0  0  0
    6.6435   -1.0485    5.3253 H   0  0  0  0  0  0  0  0  0  0  0  0
    7.1985   -5.3833   -0.3732 H   0  0  0  0  0  0  0  0  0  0  0  0
    9.4947   -6.0637   -0.8140 H   0  0  0  0  0  0  0  0  0  0  0  0
   13.0112   -4.6854   -3.0764 H   0  0  0  0  0  0  0  0  0  0  0  0
   11.8504   -4.6104   -6.8864 H   0  0  0  0  0  0  0  0  0  0  0  0
   15.5035   -2.0529   -7.8383 H   0  0  0  0  0  0  0  0  0  0  0  0
   16.2273   -2.0564   -6.1956 H   0  0  0  0  0  0  0  0  0  0  0  0
   15.0118   -0.8162   -6.6496 H   0  0  0  0  0  0  0  0  0  0  0  0
   14.1408   -2.1049   -4.2428 H   0  0  0  0  0  0  0  0  0  0  0  0
    7.6694   -2.1213   -3.1494 H   0  0  0  0  0  0  0  0  0  0  0  0
    4.0842   -4.0326   -2.1911 H   0  0  0  0  0  0  0  0  0  0  0  0
  1  2  1  0  0  0  0
  1 38  1  0  0  0  0
  1 39  1  0  0  0  0
  1 40  1  0  0  0  0
  2  3  1  0  0  0  0
  3  4  1  0  0  0  0
  3 37  2  0  0  0  0
  4  5  2  0  0  0  0
  4 41  1  0  0  0  0
  5  6  1  0  0  0  0
  5  8  1  0  0  0  0
  6  7  1  0  0  0  0
  7 42  1  0  0  0  0
  7 43  1  0  0  0  0
  7 44  1  0  0  0  0
  8  9  2  0  0  0  0
  8 45  1  0  0  0  0
  9 10  1  0  0  0  0
  9 37  1  0  0  0  0
 10 11  1  0  0  0  0
 10 21  1  0  0  0  0
 11 12  1  0  0  0  0
 11 46  1  0  0  0  0
 11 47  1  0  0  0  0
 12 13  1  0  0  0  0
 12 48  1  0  0  0  0
 12 49  1  0  0  0  0
 13 14  2  0  0  0  0
 13 15  1  0  0  0  0
 15 16  1  0  0  0  0
 15 50  1  0  0  0  0
 16 17  1  0  0  0  0
 16 51  1  0  0  0  0
 16 52  1  0  0  0  0
 17 18  1  0  0  0  0
 17 19  1  0  0  0  0
 17 20  1  0  0  0  0
 21 22  1  0  0  0  0
 21 36  2  0  0  0  0
 22 23  2  0  0  0  0
 22 53  1  0  0  0  0
 23 24  1  0  0  0  0
 23 54  1  0  0  0  0
 24 25  1  0  0  0  0
 24 35  2  0  0  0  0
 25 26  2  0  0  0  0
 26 27  1  0  0  0  0
 26 55  1  0  0  0  0
 27 28  1  0  0  0  0
 27 34  2  0  0  0  0
 28 29  1  0  0  0  0
 28 33  2  0  0  0  0
 29 30  2  0  0  0  0
 29 56  1  0  0  0  0
 30 31  1  0  0  0  0
 31 32  1  0  0  0  0
 31 33  1  0  0  0  0
 32 57  1  0  0  0  0
 32 58  1  0  0  0  0
 32 59  1  0  0  0  0
 33 60  1  0  0  0  0
 34 35  1  0  0  0  0
 35 36  1  0  0  0  0
 36 61  1  0  0  0  0
 37 62  1  0  0  0  0
M  END
$$$$
