CHEMBL485556
 OpenBabel04072215383D

 63 66  0  0  0  0  0  0  0  0999 V2000
    1.5134   -0.3604   -1.0389 C   0  0  0  0  0  0  0  0  0  0  0  0
    2.7069   -0.1111   -0.2351 N   0  0  0  0  0  0  0  0  0  0  0  0
    2.9948   -0.9456    0.8488 C   0  0  0  0  0  0  0  0  0  0  0  0
    2.3143   -1.9423    1.1145 O   0  0  0  0  0  0  0  0  0  0  0  0
    4.2623   -0.6287    1.6566 C   0  0  0  0  0  0  0  0  0  0  0  0
    5.4825   -1.2752    0.9876 C   0  0  0  0  0  0  0  0  0  0  0  0
    6.7636   -0.9351    1.7447 C   0  0  0  0  0  0  0  0  0  0  0  0
    6.6670   -1.3364    3.2141 C   0  0  0  0  0  0  0  0  0  0  0  0
    5.4286   -0.7439    3.8833 C   0  0  0  0  0  0  0  0  0  0  0  0
    4.1531   -1.0929    3.1146 C   0  0  0  0  0  0  0  0  0  0  0  0
    3.2944    1.1706   -0.3953 C   0  0  0  0  0  0  0  0  0  0  0  0
    2.8005    2.2538    0.3380 C   0  0  0  0  0  0  0  0  0  0  0  0
    3.3911    3.5206    0.2407 C   0  0  0  0  0  0  0  0  0  0  0  0
    4.4866    3.6622   -0.6259 C   0  0  0  0  0  0  0  0  0  0  0  0
    4.9816    2.6016   -1.3754 C   0  0  0  0  0  0  0  0  0  0  0  0
    4.3835    1.3323   -1.2643 C   0  0  0  0  0  0  0  0  0  0  0  0
    6.0480    3.0073   -2.1369 N   0  0  0  0  0  0  0  0  0  0  0  0
    6.2547    4.2785   -1.8684 C   0  0  0  0  0  0  0  0  0  0  0  0
    7.2574    5.0871   -2.3832 N   0  0  0  0  0  0  0  0  0  0  0  0
    7.9922    4.7253   -3.5045 C   0  0  0  0  0  0  0  0  0  0  0  0
    7.8237    3.7322   -4.2024 O   0  0  0  0  0  0  0  0  0  0  0  0
    9.0423    5.7069   -3.9543 C   0  0  0  0  0  0  0  0  0  0  0  0
    9.6980    6.5829   -3.0785 C   0  0  0  0  0  0  0  0  0  0  0  0
   10.6683    7.4779   -3.5637 C   0  0  0  0  0  0  0  0  0  0  0  0
   11.0050    7.5026   -4.9231 C   0  0  0  0  0  0  0  0  0  0  0  0
   11.9826    8.4369   -5.4173 C   0  0  0  0  0  0  0  0  0  0  0  0
   12.7604    9.2020   -5.8082 N   0  0  0  0  0  0  0  0  0  0  0  0
   10.3755    6.6101   -5.7959 C   0  0  0  0  0  0  0  0  0  0  0  0
    9.4018    5.7214   -5.3114 C   0  0  0  0  0  0  0  0  0  0  0  0
    5.3155    4.7237   -0.9493 N   0  0  0  0  0  0  0  0  0  0  0  0
    5.2436    6.0316   -0.3222 C   0  0  0  0  0  0  0  0  0  0  0  0
    4.9362    7.2084   -1.2481 C   0  0  0  0  0  0  0  0  0  0  0  0
    4.8457    8.4746   -0.4230 C   0  0  0  0  0  0  0  0  0  0  0  0
    4.6138    9.6162   -1.1254 N   0  0  0  0  0  0  0  0  0  0  0  0
    4.9913    8.5087    0.7930 O   0  0  0  0  0  0  0  0  0  0  0  0
    1.0747   -1.3387   -0.8217 H   0  0  0  0  0  0  0  0  0  0  0  0
    1.7862   -0.3289   -2.0976 H   0  0  0  0  0  0  0  0  0  0  0  0
    0.7585    0.4062   -0.8316 H   0  0  0  0  0  0  0  0  0  0  0  0
    4.4090    0.4542    1.6946 H   0  0  0  0  0  0  0  0  0  0  0  0
    5.5817   -0.9505   -0.0523 H   0  0  0  0  0  0  0  0  0  0  0  0
    5.3559   -2.3651    0.9534 H   0  0  0  0  0  0  0  0  0  0  0  0
    6.9534    0.1436    1.6712 H   0  0  0  0  0  0  0  0  0  0  0  0
    7.6157   -1.4410    1.2774 H   0  0  0  0  0  0  0  0  0  0  0  0
    7.5677   -1.0089    3.7452 H   0  0  0  0  0  0  0  0  0  0  0  0
    6.6305   -2.4301    3.2888 H   0  0  0  0  0  0  0  0  0  0  0  0
    5.5334    0.3475    3.9369 H   0  0  0  0  0  0  0  0  0  0  0  0
    5.3542   -1.1074    4.9138 H   0  0  0  0  0  0  0  0  0  0  0  0
    3.2927   -0.6122    3.5957 H   0  0  0  0  0  0  0  0  0  0  0  0
    3.9783   -2.1750    3.1664 H   0  0  0  0  0  0  0  0  0  0  0  0
    1.9560    2.1152    1.0102 H   0  0  0  0  0  0  0  0  0  0  0  0
    3.0068    4.3455    0.8310 H   0  0  0  0  0  0  0  0  0  0  0  0
    4.7844    0.4967   -1.8267 H   0  0  0  0  0  0  0  0  0  0  0  0
    7.3867    6.0011   -1.9863 H   0  0  0  0  0  0  0  0  0  0  0  0
    9.5022    6.5664   -2.0104 H   0  0  0  0  0  0  0  0  0  0  0  0
   11.1709    8.1497   -2.8688 H   0  0  0  0  0  0  0  0  0  0  0  0
   10.6358    6.5925   -6.8525 H   0  0  0  0  0  0  0  0  0  0  0  0
    8.9250    5.0319   -6.0105 H   0  0  0  0  0  0  0  0  0  0  0  0
    6.1935    6.1779    0.2048 H   0  0  0  0  0  0  0  0  0  0  0  0
    4.4680    5.9865    0.4502 H   0  0  0  0  0  0  0  0  0  0  0  0
    3.9879    7.0562   -1.7754 H   0  0  0  0  0  0  0  0  0  0  0  0
    5.7220    7.3466   -1.9966 H   0  0  0  0  0  0  0  0  0  0  0  0
    4.4025    9.6405   -2.1128 H   0  0  0  0  0  0  0  0  0  0  0  0
    4.5170   10.4769   -0.5963 H   0  0  0  0  0  0  0  0  0  0  0  0
  1  2  1  0  0  0  0
  1 36  1  0  0  0  0
  1 37  1  0  0  0  0
  1 38  1  0  0  0  0
  2  3  1  0  0  0  0
  2 11  1  0  0  0  0
  3  4  2  0  0  0  0
  3  5  1  0  0  0  0
  5  6  1  0  0  0  0
  5 10  1  0  0  0  0
  5 39  1  0  0  0  0
  6  7  1  0  0  0  0
  6 40  1  0  0  0  0
  6 41  1  0  0  0  0
  7  8  1  0  0  0  0
  7 42  1  0  0  0  0
  7 43  1  0  0  0  0
  8  9  1  0  0  0  0
  8 44  1  0  0  0  0
  8 45  1  0  0  0  0
  9 10  1  0  0  0  0
  9 46  1  0  0  0  0
  9 47  1  0  0  0  0
 10 48  1  0  0  0  0
 10 49  1  0  0  0  0
 11 12  1  0  0  0  0
 11 16  2  0  0  0  0
 12 13  2  0  0  0  0
 12 50  1  0  0  0  0
 13 14  1  0  0  0  0
 13 51  1  0  0  0  0
 14 15  2  0  0  0  0
 14 30  1  0  0  0  0
 15 16  1  0  0  0  0
 15 17  1  0  0  0  0
 16 52  1  0  0  0  0
 17 18  2  0  0  0  0
 18 19  1  0  0  0  0
 18 30  1  0  0  0  0
 19 20  1  0  0  0  0
 19 53  1  0  0  0  0
 20 21  2  0  0  0  0
 20 22  1  0  0  0  0
 22 23  1  0  0  0  0
 22 29  2  0  0  0  0
 23 24  2  0  0  0  0
 23 54  1  0  0  0  0
 24 25  1  0  0  0  0
 24 55  1  0  0  0  0
 25 26  1  0  0  0  0
 25 28  2  0  0  0  0
 26 27  3  0  0  0  0
 28 29  1  0  0  0  0
 28 56  1  0  0  0  0
 29 57  1  0  0  0  0
 30 31  1  0  0  0  0
 31 32  1  0  0  0  0
 31 58  1  0  0  0  0
 31 59  1  0  0  0  0
 32 33  1  0  0  0  0
 32 60  1  0  0  0  0
 32 61  1  0  0  0  0
 33 34  1  0  0  0  0
 33 35  2  0  0  0  0
 34 62  1  0  0  0  0
 34 63  1  0  0  0  0
M  END
$$$$
