CHEMBL71541
 OpenBabel04072215383D

 50 53  0  0  0  0  0  0  0  0999 V2000
    4.4003   -0.2799    1.2973 C   0  0  0  0  0  0  0  0  0  0  0  0
    3.0840   -0.3353    0.5193 C   0  0  0  0  0  0  0  0  0  0  0  0
    2.7098    1.0393   -0.0356 C   0  0  0  0  0  0  0  0  0  0  0  0
    3.1083   -1.3383   -0.5444 N   0  0  0  0  0  0  0  0  0  0  0  0
    3.9896   -1.3620   -1.5978 C   0  0  0  0  0  0  0  0  0  0  0  0
    3.6561   -2.4160   -2.4327 C   0  0  0  0  0  0  0  0  0  0  0  0
    4.4047   -2.7168   -3.6521 C   0  0  0  0  0  0  0  0  0  0  0  0
    5.7819   -2.4732   -3.7384 C   0  0  0  0  0  0  0  0  0  0  0  0
    6.5129   -2.9023   -4.8495 C   0  0  0  0  0  0  0  0  0  0  0  0
    5.8942   -3.6695   -5.8379 C   0  0  0  0  0  0  0  0  0  0  0  0
    6.5515   -4.2851   -6.8773 O   0  0  0  0  0  0  0  0  0  0  0  0
    7.8302   -4.7732   -6.6937 C   0  0  0  0  0  0  0  0  0  0  0  0
    8.3007   -5.2486   -5.4598 C   0  0  0  0  0  0  0  0  0  0  0  0
    9.6307   -5.6354   -5.3090 C   0  0  0  0  0  0  0  0  0  0  0  0
   10.4859   -5.6165   -6.4045 C   0  0  0  0  0  0  0  0  0  0  0  0
    9.9993   -5.2409   -7.6584 C   0  0  0  0  0  0  0  0  0  0  0  0
    8.6661   -4.8254   -7.8207 C   0  0  0  0  0  0  0  0  0  0  0  0
    8.1676   -4.5025   -9.2073 C   0  0  0  0  0  0  0  0  0  0  0  0
    8.9612   -3.4854   -9.8068 O   0  0  0  0  0  0  0  0  0  0  0  0
    4.5108   -3.8186   -5.8159 C   0  0  0  0  0  0  0  0  0  0  0  0
    3.7679   -3.3014   -4.7520 C   0  0  0  0  0  0  0  0  0  0  0  0
    2.5296   -3.0859   -1.8291 C   0  0  0  0  0  0  0  0  0  0  0  0
    1.7145   -4.2069   -2.0939 C   0  0  0  0  0  0  0  0  0  0  0  0
    1.8693   -5.0859   -3.1597 N   0  0  0  0  0  0  0  0  0  0  0  0
    0.6976   -4.4959   -1.2585 N   0  0  0  0  0  0  0  0  0  0  0  0
    0.5070   -3.7106   -0.1870 C   0  0  0  0  0  0  0  0  0  0  0  0
    1.2202   -2.6416    0.1887 N   0  0  0  0  0  0  0  0  0  0  0  0
    2.2186   -2.3753   -0.6714 C   0  0  0  0  0  0  0  0  0  0  0  0
    4.3269    0.4331    2.1260 H   0  0  0  0  0  0  0  0  0  0  0  0
    5.2371    0.0326    0.6636 H   0  0  0  0  0  0  0  0  0  0  0  0
    4.6479   -1.2602    1.7189 H   0  0  0  0  0  0  0  0  0  0  0  0
    2.3012   -0.6340    1.2268 H   0  0  0  0  0  0  0  0  0  0  0  0
    3.4558    1.4032   -0.7507 H   0  0  0  0  0  0  0  0  0  0  0  0
    2.6297    1.7752    0.7710 H   0  0  0  0  0  0  0  0  0  0  0  0
    1.7453    0.9991   -0.5536 H   0  0  0  0  0  0  0  0  0  0  0  0
    4.7699   -0.6154   -1.6740 H   0  0  0  0  0  0  0  0  0  0  0  0
    6.3169   -1.9758   -2.9327 H   0  0  0  0  0  0  0  0  0  0  0  0
    7.5759   -2.6822   -4.8969 H   0  0  0  0  0  0  0  0  0  0  0  0
    7.6458   -5.3043   -4.5946 H   0  0  0  0  0  0  0  0  0  0  0  0
    9.9962   -5.9494   -4.3344 H   0  0  0  0  0  0  0  0  0  0  0  0
   11.5236   -5.9154   -6.2910 H   0  0  0  0  0  0  0  0  0  0  0  0
   10.6647   -5.2728   -8.5196 H   0  0  0  0  0  0  0  0  0  0  0  0
    7.1283   -4.1623   -9.2162 H   0  0  0  0  0  0  0  0  0  0  0  0
    8.2218   -5.3983   -9.8356 H   0  0  0  0  0  0  0  0  0  0  0  0
    9.1614   -2.8406   -9.1077 H   0  0  0  0  0  0  0  0  0  0  0  0
    4.0054   -4.3606   -6.6101 H   0  0  0  0  0  0  0  0  0  0  0  0
    2.6865   -3.4061   -4.7799 H   0  0  0  0  0  0  0  0  0  0  0  0
    2.8362   -5.2710   -3.3949 H   0  0  0  0  0  0  0  0  0  0  0  0
    1.2926   -5.9070   -3.0165 H   0  0  0  0  0  0  0  0  0  0  0  0
   -0.3253   -3.9821    0.4545 H   0  0  0  0  0  0  0  0  0  0  0  0
  1  2  1  0  0  0  0
  1 29  1  0  0  0  0
  1 30  1  0  0  0  0
  1 31  1  0  0  0  0
  2  3  1  0  0  0  0
  2  4  1  0  0  0  0
  2 32  1  0  0  0  0
  3 33  1  0  0  0  0
  3 34  1  0  0  0  0
  3 35  1  0  0  0  0
  4  5  1  0  0  0  0
  4 28  1  0  0  0  0
  5  6  2  0  0  0  0
  5 36  1  0  0  0  0
  6  7  1  0  0  0  0
  6 22  1  0  0  0  0
  7  8  1  0  0  0  0
  7 21  2  0  0  0  0
  8  9  2  0  0  0  0
  8 37  1  0  0  0  0
  9 10  1  0  0  0  0
  9 38  1  0  0  0  0
 10 11  1  0  0  0  0
 10 20  2  0  0  0  0
 11 12  1  0  0  0  0
 12 13  1  0  0  0  0
 12 17  2  0  0  0  0
 13 14  2  0  0  0  0
 13 39  1  0  0  0  0
 14 15  1  0  0  0  0
 14 40  1  0  0  0  0
 15 16  2  0  0  0  0
 15 41  1  0  0  0  0
 16 17  1  0  0  0  0
 16 42  1  0  0  0  0
 17 18  1  0  0  0  0
 18 19  1  0  0  0  0
 18 43  1  0  0  0  0
 18 44  1  0  0  0  0
 19 45  1  0  0  0  0
 20 21  1  0  0  0  0
 20 46  1  0  0  0  0
 21 47  1  0  0  0  0
 22 23  1  0  0  0  0
 22 28  2  0  0  0  0
 23 24  1  0  0  0  0
 23 25  2  0  0  0  0
 24 48  1  0  0  0  0
 24 49  1  0  0  0  0
 25 26  1  0  0  0  0
 26 27  2  0  0  0  0
 26 50  1  0  0  0  0
 27 28  1  0  0  0  0
M  END
$$$$
