CHEMBL3221558
 OpenBabel04072215363D

 46 47  0  0  0  0  0  0  0  0999 V2000
    7.3532   -1.7516   -0.3964 C   0  0  0  0  0  0  0  0  0  0  0  0
    6.5904   -0.7078   -0.8685 O   0  0  0  0  0  0  0  0  0  0  0  0
    5.3556   -0.4029   -0.3940 C   0  0  0  0  0  0  0  0  0  0  0  0
    4.8178   -1.1182    0.4403 O   0  0  0  0  0  0  0  0  0  0  0  0
    4.7637    0.7636   -0.7449 N   0  0  0  0  0  0  0  0  0  0  0  0
    5.3276    1.6641   -1.6911 C   0  0  0  0  0  0  0  0  0  0  0  0
    5.8579    1.2076   -2.9132 C   0  0  0  0  0  0  0  0  0  0  0  0
    6.3537    2.1188   -3.8518 C   0  0  0  0  0  0  0  0  0  0  0  0
    6.3452    3.4984   -3.5850 C   0  0  0  0  0  0  0  0  0  0  0  0
    6.8236    4.4015   -4.5922 N   0  0  0  0  0  0  0  0  0  0  0  0
    6.5206    5.8053   -4.6510 C   0  0  0  0  0  0  0  0  0  0  0  0
    5.6038    6.3295   -3.7929 N   0  0  0  0  0  0  0  0  0  0  0  0
    5.2617    7.6344   -3.7902 C   0  0  0  0  0  0  0  0  0  0  0  0
    5.8256    8.4802   -4.6726 N   0  0  0  0  0  0  0  0  0  0  0  0
    6.7337    8.0348   -5.5777 C   0  0  0  0  0  0  0  0  0  0  0  0
    7.2897    8.9361   -6.4787 C   0  0  0  0  0  0  0  0  0  0  0  0
    8.2313    8.5220   -7.4487 C   0  0  0  0  0  0  0  0  0  0  0  0
    8.7619    9.4258   -8.3197 O   0  0  0  0  0  0  0  0  0  0  0  0
    8.4608   10.7786   -8.3242 C   0  0  0  0  0  0  0  0  0  0  0  0
    8.6056    7.1482   -7.4851 C   0  0  0  0  0  0  0  0  0  0  0  0
    9.4799    6.5800   -8.3575 O   0  0  0  0  0  0  0  0  0  0  0  0
   10.1904    7.1290   -9.3961 C   0  0  0  0  0  0  0  0  0  0  0  0
    8.0453    6.2573   -6.5638 C   0  0  0  0  0  0  0  0  0  0  0  0
    7.1104    6.6751   -5.6040 C   0  0  0  0  0  0  0  0  0  0  0  0
    5.8631    3.9323   -2.3310 C   0  0  0  0  0  0  0  0  0  0  0  0
    5.3401    3.0335   -1.4094 C   0  0  0  0  0  0  0  0  0  0  0  0
    4.7482    3.6575    0.1268 Cl  0  0  0  0  0  0  0  0  0  0  0  0
   -0.6501    1.0803   -1.1353 Cl  0  0  0  0  0  0  0  0  0  0  0  0
    8.3469   -1.7255   -0.8875 H   0  0  0  0  0  0  0  0  0  0  0  0
    6.8543   -2.7167   -0.6176 H   0  0  0  0  0  0  0  0  0  0  0  0
    7.5032   -1.6455    0.7012 H   0  0  0  0  0  0  0  0  0  0  0  0
    3.9129    1.0520   -0.2380 H   0  0  0  0  0  0  0  0  0  0  0  0
    5.8469    0.1541   -3.1635 H   0  0  0  0  0  0  0  0  0  0  0  0
    6.7228    1.7479   -4.8017 H   0  0  0  0  0  0  0  0  0  0  0  0
    7.3413    3.9682   -5.3670 H   0  0  0  0  0  0  0  0  0  0  0  0
    4.5316    7.9974   -3.0735 H   0  0  0  0  0  0  0  0  0  0  0  0
    6.9679    9.9683   -6.4083 H   0  0  0  0  0  0  0  0  0  0  0  0
    9.0322   11.2937   -9.1240 H   0  0  0  0  0  0  0  0  0  0  0  0
    8.7328   11.2442   -7.3505 H   0  0  0  0  0  0  0  0  0  0  0  0
    7.3761   10.9381   -8.5157 H   0  0  0  0  0  0  0  0  0  0  0  0
   10.7712    6.3073   -9.8714 H   0  0  0  0  0  0  0  0  0  0  0  0
   10.9066    7.8858   -9.0205 H   0  0  0  0  0  0  0  0  0  0  0  0
    9.5059    7.5497  -10.1600 H   0  0  0  0  0  0  0  0  0  0  0  0
    8.3713    5.2341   -6.6323 H   0  0  0  0  0  0  0  0  0  0  0  0
    5.8843    4.9588   -2.0200 H   0  0  0  0  0  0  0  0  0  0  0  0
    0.3991    1.6998   -0.4969 H   0  0  0  0  0  0  0  0  0  0  0  0
  1  2  1  0  0  0  0
  1 29  1  0  0  0  0
  1 30  1  0  0  0  0
  1 31  1  0  0  0  0
  2  3  1  0  0  0  0
  3  4  2  0  0  0  0
  3  5  1  0  0  0  0
  5  6  1  0  0  0  0
  5 32  1  0  0  0  0
  6  7  1  0  0  0  0
  6 26  2  0  0  0  0
  7  8  2  0  0  0  0
  7 33  1  0  0  0  0
  8  9  1  0  0  0  0
  8 34  1  0  0  0  0
  9 10  1  0  0  0  0
  9 25  2  0  0  0  0
 10 11  1  0  0  0  0
 10 35  1  0  0  0  0
 11 12  1  0  0  0  0
 11 24  2  0  0  0  0
 12 13  2  0  0  0  0
 13 14  1  0  0  0  0
 13 36  1  0  0  0  0
 14 15  2  0  0  0  0
 15 16  1  0  0  0  0
 15 24  1  0  0  0  0
 16 17  2  0  0  0  0
 16 37  1  0  0  0  0
 17 18  1  0  0  0  0
 17 20  1  0  0  0  0
 18 19  1  0  0  0  0
 19 38  1  0  0  0  0
 19 39  1  0  0  0  0
 19 40  1  0  0  0  0
 20 21  1  0  0  0  0
 20 23  2  0  0  0  0
 21 22  1  0  0  0  0
 22 41  1  0  0  0  0
 22 42  1  0  0  0  0
 22 43  1  0  0  0  0
 23 24  1  0  0  0  0
 23 44  1  0  0  0  0
 25 26  1  0  0  0  0
 25 45  1  0  0  0  0
 26 27  1  0  0  0  0
 28 46  1  0  0  0  0
M  END
$$$$
