CHEMBL3817989
 OpenBabel04072215373D

 43 46  0  0  0  0  0  0  0  0999 V2000
    1.5921    5.0382   -2.0013 C   0  0  0  0  0  0  0  0  0  0  0  0
    2.0892    4.0047   -1.1562 O   0  0  0  0  0  0  0  0  0  0  0  0
    2.8319    3.1320   -1.9625 N   0  0  0  0  0  0  0  0  0  0  0  0
    4.2001    2.9540   -1.6482 C   0  0  0  0  0  0  0  0  0  0  0  0
    4.8687    1.7954   -2.0503 C   0  0  0  0  0  0  0  0  0  0  0  0
    6.2324    1.6306   -1.7804 C   0  0  0  0  0  0  0  0  0  0  0  0
    6.9682    2.6347   -1.1402 C   0  0  0  0  0  0  0  0  0  0  0  0
    8.3279    2.4855   -0.8042 N   0  0  0  0  0  0  0  0  0  0  0  0
    9.2631    1.6852   -1.4625 C   0  0  0  0  0  0  0  0  0  0  0  0
   10.2180    1.1208   -0.7112 N   0  0  0  0  0  0  0  0  0  0  0  0
   11.1075    0.3467   -1.3593 C   0  0  0  0  0  0  0  0  0  0  0  0
   11.0756    0.1172   -2.7145 C   0  0  0  0  0  0  0  0  0  0  0  0
   10.0804    0.7572   -3.4157 C   0  0  0  0  0  0  0  0  0  0  0  0
   10.0216    0.6065   -4.8238 N   0  0  0  0  0  0  0  0  0  0  0  0
    9.2901    1.4635   -5.6850 C   0  0  0  0  0  0  0  0  0  0  0  0
    9.2893    2.8525   -5.4765 C   0  0  0  0  0  0  0  0  0  0  0  0
    8.5327    3.7291   -6.2600 C   0  0  0  0  0  0  0  0  0  0  0  0
    7.7908    3.1606   -7.2927 C   0  0  0  0  0  0  0  0  0  0  0  0
    6.9146    3.7102   -8.1895 N   0  0  0  0  0  0  0  0  0  0  0  0
    6.4368    2.8374   -9.0950 N   0  0  0  0  0  0  0  0  0  0  0  0
    6.9901    1.6784   -8.7253 C   0  0  0  0  0  0  0  0  0  0  0  0
    7.8202    1.8034   -7.5882 C   0  0  0  0  0  0  0  0  0  0  0  0
    8.5840    0.9361   -6.7810 C   0  0  0  0  0  0  0  0  0  0  0  0
    9.1789    1.5224   -2.7885 N   0  0  0  0  0  0  0  0  0  0  0  0
    6.3021    3.8025   -0.7603 C   0  0  0  0  0  0  0  0  0  0  0  0
    4.9406    3.9695   -1.0343 C   0  0  0  0  0  0  0  0  0  0  0  0
    1.3419    5.8948   -1.3693 H   0  0  0  0  0  0  0  0  0  0  0  0
    0.6841    4.6964   -2.5060 H   0  0  0  0  0  0  0  0  0  0  0  0
    2.3371    5.3617   -2.7367 H   0  0  0  0  0  0  0  0  0  0  0  0
    2.3614    2.2332   -2.0665 H   0  0  0  0  0  0  0  0  0  0  0  0
    4.3374    1.0001   -2.5658 H   0  0  0  0  0  0  0  0  0  0  0  0
    6.7119    0.7018   -2.0796 H   0  0  0  0  0  0  0  0  0  0  0  0
    8.4789    2.3729    0.1914 H   0  0  0  0  0  0  0  0  0  0  0  0
   11.8810   -0.0884   -0.7354 H   0  0  0  0  0  0  0  0  0  0  0  0
   11.8174   -0.4995   -3.1997 H   0  0  0  0  0  0  0  0  0  0  0  0
    9.9161   -0.3727   -5.0636 H   0  0  0  0  0  0  0  0  0  0  0  0
    9.8763    3.2719   -4.6611 H   0  0  0  0  0  0  0  0  0  0  0  0
    8.5222    4.7933   -6.0528 H   0  0  0  0  0  0  0  0  0  0  0  0
    6.5969    4.6717   -8.2288 H   0  0  0  0  0  0  0  0  0  0  0  0
    6.7633    0.7881   -9.2962 H   0  0  0  0  0  0  0  0  0  0  0  0
    8.5838   -0.1281   -6.9888 H   0  0  0  0  0  0  0  0  0  0  0  0
    6.8476    4.6081   -0.2769 H   0  0  0  0  0  0  0  0  0  0  0  0
    4.4580    4.9036   -0.7617 H   0  0  0  0  0  0  0  0  0  0  0  0
  1  2  1  0  0  0  0
  1 27  1  0  0  0  0
  1 28  1  0  0  0  0
  1 29  1  0  0  0  0
  2  3  1  0  0  0  0
  3  4  1  0  0  0  0
  3 30  1  0  0  0  0
  4  5  1  0  0  0  0
  4 26  2  0  0  0  0
  5  6  2  0  0  0  0
  5 31  1  0  0  0  0
  6  7  1  0  0  0  0
  6 32  1  0  0  0  0
  7  8  1  0  0  0  0
  7 25  2  0  0  0  0
  8  9  1  0  0  0  0
  8 33  1  0  0  0  0
  9 10  1  0  0  0  0
  9 24  2  0  0  0  0
 10 11  2  0  0  0  0
 11 12  1  0  0  0  0
 11 34  1  0  0  0  0
 12 13  2  0  0  0  0
 12 35  1  0  0  0  0
 13 14  1  0  0  0  0
 13 24  1  0  0  0  0
 14 15  1  0  0  0  0
 14 36  1  0  0  0  0
 15 16  1  0  0  0  0
 15 23  2  0  0  0  0
 16 17  2  0  0  0  0
 16 37  1  0  0  0  0
 17 18  1  0  0  0  0
 17 38  1  0  0  0  0
 18 19  1  0  0  0  0
 18 22  2  0  0  0  0
 19 20  1  0  0  0  0
 19 39  1  0  0  0  0
 20 21  2  0  0  0  0
 21 22  1  0  0  0  0
 21 40  1  0  0  0  0
 22 23  1  0  0  0  0
 23 41  1  0  0  0  0
 25 26  1  0  0  0  0
 25 42  1  0  0  0  0
 26 43  1  0  0  0  0
M  END
$$$$
