CHEMBL2385586
 OpenBabel04072215363D

 45 49  0  0  0  0  0  0  0  0999 V2000
    1.3719   -0.1799   -0.0477 C   0  0  0  0  0  0  0  0  0  0  0  0
    0.5082   -1.2785    0.0157 C   0  0  0  0  0  0  0  0  0  0  0  0
   -0.8858   -1.1265    0.0339 C   0  0  0  0  0  0  0  0  0  0  0  0
   -1.7237   -2.2158    0.1269 N   0  0  0  0  0  0  0  0  0  0  0  0
   -3.0390   -2.1252    0.7705 C   0  0  0  0  0  0  0  0  0  0  0  0
   -3.2276   -3.3287    1.7209 C   0  0  0  0  0  0  0  0  0  0  0  0
   -3.0561   -4.6378    1.0541 N   0  0  0  0  0  0  0  0  0  0  0  0
   -1.7247   -4.6732    0.4065 C   0  0  0  0  0  0  0  0  0  0  0  0
   -1.4543   -3.4907   -0.5536 C   0  0  0  0  0  0  0  0  0  0  0  0
   -1.3785    0.1865   -0.0053 C   0  0  0  0  0  0  0  0  0  0  0  0
   -0.5276    1.2945   -0.0709 C   0  0  0  0  0  0  0  0  0  0  0  0
    0.8540    1.1125   -0.1033 C   0  0  0  0  0  0  0  0  0  0  0  0
    1.7401    2.2574   -0.2752 C   0  0  0  0  0  0  0  0  0  0  0  0
    2.1369    2.7083   -1.6439 C   0  0  0  0  0  0  0  0  0  0  0  0
    2.8732    3.7362   -1.9321 N   0  0  0  0  0  0  0  0  0  0  0  0
    3.3280    4.4631   -0.8622 C   0  0  0  0  0  0  0  0  0  0  0  0
    4.0684    5.6218   -0.7798 C   0  0  0  0  0  0  0  0  0  0  0  0
    4.5748    6.4571   -1.8513 C   0  0  0  0  0  0  0  0  0  0  0  0
    4.4006    6.2430   -3.2359 C   0  0  0  0  0  0  0  0  0  0  0  0
    4.9757    7.1996   -3.9736 N   0  0  0  0  0  0  0  0  0  0  0  0
    5.5134    8.0219   -3.0565 N   0  0  0  0  0  0  0  0  0  0  0  0
    5.3051    7.6188   -1.7703 C   0  0  0  0  0  0  0  0  0  0  0  0
    4.2284    5.8563    0.5965 C   0  0  0  0  0  0  0  0  0  0  0  0
    3.6223    4.9382    1.3544 N   0  0  0  0  0  0  0  0  0  0  0  0
    3.0469    4.0922    0.4593 N   0  0  0  0  0  0  0  0  0  0  0  0
    2.2464    2.9876    0.7321 C   0  0  0  0  0  0  0  0  0  0  0  0
    2.4453   -0.3525   -0.0591 H   0  0  0  0  0  0  0  0  0  0  0  0
    0.9517   -2.2676    0.0886 H   0  0  0  0  0  0  0  0  0  0  0  0
   -3.8197   -2.1233    0.0000 H   0  0  0  0  0  0  0  0  0  0  0  0
   -3.1523   -1.2130    1.3662 H   0  0  0  0  0  0  0  0  0  0  0  0
   -4.2295   -3.2839    2.1605 H   0  0  0  0  0  0  0  0  0  0  0  0
   -2.5141   -3.2546    2.5521 H   0  0  0  0  0  0  0  0  0  0  0  0
   -3.7633   -4.7084    0.3230 H   0  0  0  0  0  0  0  0  0  0  0  0
   -1.6350   -5.6141   -0.1476 H   0  0  0  0  0  0  0  0  0  0  0  0
   -0.9527   -4.6910    1.1857 H   0  0  0  0  0  0  0  0  0  0  0  0
   -2.1181   -3.5675   -1.4251 H   0  0  0  0  0  0  0  0  0  0  0  0
   -0.4327   -3.5708   -0.9393 H   0  0  0  0  0  0  0  0  0  0  0  0
   -2.4497    0.3708   -0.0197 H   0  0  0  0  0  0  0  0  0  0  0  0
   -0.9621    2.2907   -0.1178 H   0  0  0  0  0  0  0  0  0  0  0  0
    1.7540    2.0899   -2.4755 H   0  0  0  0  0  0  0  0  0  0  0  0
    3.8766    5.4395   -3.7385 H   0  0  0  0  0  0  0  0  0  0  0  0
    6.0057    8.8458   -3.3845 H   0  0  0  0  0  0  0  0  0  0  0  0
    5.6801    8.1900   -0.9346 H   0  0  0  0  0  0  0  0  0  0  0  0
    4.7572    6.6649    1.0860 H   0  0  0  0  0  0  0  0  0  0  0  0
    2.0582    2.7883    1.7793 H   0  0  0  0  0  0  0  0  0  0  0  0
  1  2  1  0  0  0  0
  1 12  2  0  0  0  0
  1 27  1  0  0  0  0
  2  3  2  0  0  0  0
  2 28  1  0  0  0  0
  3  4  1  0  0  0  0
  3 10  1  0  0  0  0
  4  5  1  0  0  0  0
  4  9  1  0  0  0  0
  5  6  1  0  0  0  0
  5 29  1  0  0  0  0
  5 30  1  0  0  0  0
  6  7  1  0  0  0  0
  6 31  1  0  0  0  0
  6 32  1  0  0  0  0
  7  8  1  0  0  0  0
  7 33  1  0  0  0  0
  8  9  1  0  0  0  0
  8 34  1  0  0  0  0
  8 35  1  0  0  0  0
  9 36  1  0  0  0  0
  9 37  1  0  0  0  0
 10 11  2  0  0  0  0
 10 38  1  0  0  0  0
 11 12  1  0  0  0  0
 11 39  1  0  0  0  0
 12 13  1  0  0  0  0
 13 14  1  0  0  0  0
 13 26  2  0  0  0  0
 14 15  2  0  0  0  0
 14 40  1  0  0  0  0
 15 16  1  0  0  0  0
 16 17  2  0  0  0  0
 16 25  1  0  0  0  0
 17 18  1  0  0  0  0
 17 23  1  0  0  0  0
 18 19  1  0  0  0  0
 18 22  2  0  0  0  0
 19 20  2  0  0  0  0
 19 41  1  0  0  0  0
 20 21  1  0  0  0  0
 21 22  1  0  0  0  0
 21 42  1  0  0  0  0
 22 43  1  0  0  0  0
 23 24  2  0  0  0  0
 23 44  1  0  0  0  0
 24 25  1  0  0  0  0
 25 26  1  0  0  0  0
 26 45  1  0  0  0  0
M  END
$$$$
