CHEMBL212668
 OpenBabel04072215363D

 85 89  0  0  0  0  0  0  0  0999 V2000
    0.7929    1.3141   -0.4672 C   0  0  0  0  0  0  0  0  0  0  0  0
    2.1744    1.0159   -0.3724 O   0  0  0  0  0  0  0  0  0  0  0  0
    2.8362    1.4334    0.7455 C   0  0  0  0  0  0  0  0  0  0  0  0
    2.3362    2.1441    1.8221 C   0  0  0  0  0  0  0  0  0  0  0  0
    3.1920    2.5143    2.8857 C   0  0  0  0  0  0  0  0  0  0  0  0
    4.5671    2.1847    2.9101 C   0  0  0  0  0  0  0  0  0  0  0  0
    5.4160    2.6095    3.9970 N   0  0  0  0  0  0  0  0  0  0  0  0
    6.5659    3.4196    3.8801 C   0  0  0  0  0  0  0  0  0  0  0  0
    7.4507    3.4921    4.7228 O   0  0  0  0  0  0  0  0  0  0  0  0
    6.5506    4.2041    2.7152 O   0  0  0  0  0  0  0  0  0  0  0  0
    7.0337    5.5531    2.5817 C   0  0  0  0  0  0  0  0  0  0  0  0
    6.9231    6.5446    3.5783 C   0  0  0  0  0  0  0  0  0  0  0  0
    6.5518    6.3728    5.0224 C   0  0  0  0  0  0  0  0  0  0  0  0
    7.2087    7.8818    3.2227 C   0  0  0  0  0  0  0  0  0  0  0  0
    7.6418    8.2303    1.9493 C   0  0  0  0  0  0  0  0  0  0  0  0
    7.7938    7.2416    0.9878 C   0  0  0  0  0  0  0  0  0  0  0  0
    7.4800    5.9021    1.2814 C   0  0  0  0  0  0  0  0  0  0  0  0
    7.7011    4.8682    0.2135 C   0  0  0  0  0  0  0  0  0  0  0  0
    4.9143    2.4518    5.3241 C   0  0  0  0  0  0  0  0  0  0  0  0
    4.7996    1.1614    5.7974 C   0  0  0  0  0  0  0  0  0  0  0  0
    4.3615    1.0474    7.0868 C   0  0  0  0  0  0  0  0  0  0  0  0
    3.9990    2.0965    7.8347 N   0  0  0  0  0  0  0  0  0  0  0  0
    4.1399    3.3211    7.3126 C   0  0  0  0  0  0  0  0  0  0  0  0
    3.7115    4.4349    8.0478 N   0  0  0  0  0  0  0  0  0  0  0  0
    2.7269    4.5449    9.0445 C   0  0  0  0  0  0  0  0  0  0  0  0
    2.3298    3.4616    9.8262 C   0  0  0  0  0  0  0  0  0  0  0  0
    1.2472    3.5509   10.7180 C   0  0  0  0  0  0  0  0  0  0  0  0
    0.5334    4.7372   10.8081 C   0  0  0  0  0  0  0  0  0  0  0  0
   -0.5626    4.9304   11.6156 O   0  0  0  0  0  0  0  0  0  0  0  0
   -0.5892    4.1184   12.7920 C   0  0  0  0  0  0  0  0  0  0  0  0
   -1.3815    4.8577   13.8823 C   0  0  0  0  0  0  0  0  0  0  0  0
   -1.4830    4.1199   15.1524 N   0  0  0  0  0  0  0  0  0  0  0  0
   -0.1667    3.8360   15.7569 C   0  0  0  0  0  0  0  0  0  0  0  0
   -0.3094    3.0600   17.0848 C   0  0  0  0  0  0  0  0  0  0  0  0
   -1.1381    3.7328   18.1023 N   0  0  0  0  0  0  0  0  0  0  0  0
   -0.4381    4.8752   18.6849 C   0  0  0  0  0  0  0  0  0  0  0  0
   -2.4221    4.1308   17.4872 C   0  0  0  0  0  0  0  0  0  0  0  0
   -2.3057    4.8674   16.1277 C   0  0  0  0  0  0  0  0  0  0  0  0
    0.9079    5.8289   10.0335 C   0  0  0  0  0  0  0  0  0  0  0  0
    1.9998    5.7332    9.1607 C   0  0  0  0  0  0  0  0  0  0  0  0
    4.6310    3.5346    6.0805 N   0  0  0  0  0  0  0  0  0  0  0  0
    5.0391    1.4018    1.8347 C   0  0  0  0  0  0  0  0  0  0  0  0
    6.3075    0.8691    1.8947 O   0  0  0  0  0  0  0  0  0  0  0  0
    6.8187    0.4692    0.6157 C   0  0  0  0  0  0  0  0  0  0  0  0
    4.1721    1.0606    0.7718 C   0  0  0  0  0  0  0  0  0  0  0  0
    0.4117    0.8415   -1.3782 H   0  0  0  0  0  0  0  0  0  0  0  0
    0.6331    2.3922   -0.5536 H   0  0  0  0  0  0  0  0  0  0  0  0
    0.2433    0.8932    0.3800 H   0  0  0  0  0  0  0  0  0  0  0  0
    1.2896    2.4351    1.8631 H   0  0  0  0  0  0  0  0  0  0  0  0
    2.7589    3.1156    3.6884 H   0  0  0  0  0  0  0  0  0  0  0  0
    6.5113    5.3569    5.3840 H   0  0  0  0  0  0  0  0  0  0  0  0
    5.5821    6.8311    5.2362 H   0  0  0  0  0  0  0  0  0  0  0  0
    7.3179    6.8671    5.6350 H   0  0  0  0  0  0  0  0  0  0  0  0
    7.1116    8.6694    3.9694 H   0  0  0  0  0  0  0  0  0  0  0  0
    7.8863    9.2650    1.7233 H   0  0  0  0  0  0  0  0  0  0  0  0
    8.1686    7.5238    0.0061 H   0  0  0  0  0  0  0  0  0  0  0  0
    7.9741    5.3329   -0.7424 H   0  0  0  0  0  0  0  0  0  0  0  0
    6.8008    4.2726    0.0404 H   0  0  0  0  0  0  0  0  0  0  0  0
    8.5292    4.2162    0.5080 H   0  0  0  0  0  0  0  0  0  0  0  0
    5.1081    0.3045    5.2226 H   0  0  0  0  0  0  0  0  0  0  0  0
    4.2860    0.0834    7.5813 H   0  0  0  0  0  0  0  0  0  0  0  0
    4.3400    5.2142    7.9405 H   0  0  0  0  0  0  0  0  0  0  0  0
    2.8554    2.5132    9.7842 H   0  0  0  0  0  0  0  0  0  0  0  0
    0.9886    2.6717   11.2855 H   0  0  0  0  0  0  0  0  0  0  0  0
    0.4341    3.9559   13.1478 H   0  0  0  0  0  0  0  0  0  0  0  0
   -1.0579    3.1558   12.5605 H   0  0  0  0  0  0  0  0  0  0  0  0
   -2.3907    5.0445   13.4899 H   0  0  0  0  0  0  0  0  0  0  0  0
   -0.9326    5.8478   14.0364 H   0  0  0  0  0  0  0  0  0  0  0  0
    0.3919    4.7672   15.9189 H   0  0  0  0  0  0  0  0  0  0  0  0
    0.4366    3.2088   15.0933 H   0  0  0  0  0  0  0  0  0  0  0  0
    0.6857    2.8382   17.4895 H   0  0  0  0  0  0  0  0  0  0  0  0
   -0.7613    2.0822   16.8679 H   0  0  0  0  0  0  0  0  0  0  0  0
    0.5115    4.5537   19.1279 H   0  0  0  0  0  0  0  0  0  0  0  0
   -1.0301    5.3072   19.4987 H   0  0  0  0  0  0  0  0  0  0  0  0
   -0.2219    5.6689   17.9631 H   0  0  0  0  0  0  0  0  0  0  0  0
   -3.0025    4.7417   18.1894 H   0  0  0  0  0  0  0  0  0  0  0  0
   -3.0144    3.2185   17.3330 H   0  0  0  0  0  0  0  0  0  0  0  0
   -1.8864    5.8691   16.2935 H   0  0  0  0  0  0  0  0  0  0  0  0
   -3.3172    5.0046   15.7271 H   0  0  0  0  0  0  0  0  0  0  0  0
    0.3264    6.7429   10.0788 H   0  0  0  0  0  0  0  0  0  0  0  0
    2.2402    6.5946    8.5301 H   0  0  0  0  0  0  0  0  0  0  0  0
    7.8708    0.2017    0.7202 H   0  0  0  0  0  0  0  0  0  0  0  0
    6.7413    1.3088   -0.0823 H   0  0  0  0  0  0  0  0  0  0  0  0
    6.3071   -0.4172    0.2137 H   0  0  0  0  0  0  0  0  0  0  0  0
    4.5012    0.4630   -0.0728 H   0  0  0  0  0  0  0  0  0  0  0  0
  1  2  1  0  0  0  0
  1 46  1  0  0  0  0
  1 47  1  0  0  0  0
  1 48  1  0  0  0  0
  2  3  1  0  0  0  0
  3  4  1  0  0  0  0
  3 45  2  0  0  0  0
  4  5  2  0  0  0  0
  4 49  1  0  0  0  0
  5  6  1  0  0  0  0
  5 50  1  0  0  0  0
  6  7  1  0  0  0  0
  6 42  2  0  0  0  0
  7  8  1  0  0  0  0
  7 19  1  0  0  0  0
  8  9  2  0  0  0  0
  8 10  1  0  0  0  0
 10 11  1  0  0  0  0
 11 12  1  0  0  0  0
 11 17  2  0  0  0  0
 12 13  1  0  0  0  0
 12 14  2  0  0  0  0
 13 51  1  0  0  0  0
 13 52  1  0  0  0  0
 13 53  1  0  0  0  0
 14 15  1  0  0  0  0
 14 54  1  0  0  0  0
 15 16  2  0  0  0  0
 15 55  1  0  0  0  0
 16 17  1  0  0  0  0
 16 56  1  0  0  0  0
 17 18  1  0  0  0  0
 18 57  1  0  0  0  0
 18 58  1  0  0  0  0
 18 59  1  0  0  0  0
 19 20  1  0  0  0  0
 19 41  2  0  0  0  0
 20 21  2  0  0  0  0
 20 60  1  0  0  0  0
 21 22  1  0  0  0  0
 21 61  1  0  0  0  0
 22 23  2  0  0  0  0
 23 24  1  0  0  0  0
 23 41  1  0  0  0  0
 24 25  1  0  0  0  0
 24 62  1  0  0  0  0
 25 26  1  0  0  0  0
 25 40  2  0  0  0  0
 26 27  2  0  0  0  0
 26 63  1  0  0  0  0
 27 28  1  0  0  0  0
 27 64  1  0  0  0  0
 28 29  1  0  0  0  0
 28 39  2  0  0  0  0
 29 30  1  0  0  0  0
 30 31  1  0  0  0  0
 30 65  1  0  0  0  0
 30 66  1  0  0  0  0
 31 32  1  0  0  0  0
 31 67  1  0  0  0  0
 31 68  1  0  0  0  0
 32 33  1  0  0  0  0
 32 38  1  0  0  0  0
 33 34  1  0  0  0  0
 33 69  1  0  0  0  0
 33 70  1  0  0  0  0
 34 35  1  0  0  0  0
 34 71  1  0  0  0  0
 34 72  1  0  0  0  0
 35 36  1  0  0  0  0
 35 37  1  0  0  0  0
 36 73  1  0  0  0  0
 36 74  1  0  0  0  0
 36 75  1  0  0  0  0
 37 38  1  0  0  0  0
 37 76  1  0  0  0  0
 37 77  1  0  0  0  0
 38 78  1  0  0  0  0
 38 79  1  0  0  0  0
 39 40  1  0  0  0  0
 39 80  1  0  0  0  0
 40 81  1  0  0  0  0
 42 43  1  0  0  0  0
 42 45  1  0  0  0  0
 43 44  1  0  0  0  0
 44 82  1  0  0  0  0
 44 83  1  0  0  0  0
 44 84  1  0  0  0  0
 45 85  1  0  0  0  0
M  END
$$$$
