CHEMBL3809895
 OpenBabel04072215373D

 48 50  0  0  0  0  0  0  0  0999 V2000
    1.8139    5.5131    6.6096 C   0  0  0  0  0  0  0  0  0  0  0  0
    3.3495    5.4364    6.6734 C   0  0  0  0  0  0  0  0  0  0  0  0
    3.9629    6.4086    5.6526 C   0  0  0  0  0  0  0  0  0  0  0  0
    3.8133    5.8392    8.0846 C   0  0  0  0  0  0  0  0  0  0  0  0
    3.7629    4.0371    6.3342 C   0  0  0  0  0  0  0  0  0  0  0  0
    3.6205    3.2546    5.2128 C   0  0  0  0  0  0  0  0  0  0  0  0
    4.1510    2.0062    5.5848 C   0  0  0  0  0  0  0  0  0  0  0  0
    4.1656    0.8990    4.7732 N   0  0  0  0  0  0  0  0  0  0  0  0
    4.6374   -0.3443    5.0666 C   0  0  0  0  0  0  0  0  0  0  0  0
    4.5593   -1.1954    4.1808 O   0  0  0  0  0  0  0  0  0  0  0  0
    5.1358   -0.5307    6.3301 N   0  0  0  0  0  0  0  0  0  0  0  0
    5.7390   -1.6940    6.8348 C   0  0  0  0  0  0  0  0  0  0  0  0
    6.1905   -2.7135    6.0043 C   0  0  0  0  0  0  0  0  0  0  0  0
    6.7177   -3.8810    6.5447 C   0  0  0  0  0  0  0  0  0  0  0  0
    6.8118   -4.0399    7.9293 C   0  0  0  0  0  0  0  0  0  0  0  0
    7.3719   -5.3208    8.4934 C   0  0  0  0  0  0  0  0  0  0  0  0
    8.8473   -5.3164    8.6866 C   0  0  0  0  0  0  0  0  0  0  0  0
    9.6928   -6.2973    9.1603 C   0  0  0  0  0  0  0  0  0  0  0  0
   10.9665   -5.7034    9.1869 C   0  0  0  0  0  0  0  0  0  0  0  0
   12.0645   -6.3171    9.6258 N   0  0  0  0  0  0  0  0  0  0  0  0
   10.9477   -4.4566    8.7327 N   0  0  0  0  0  0  0  0  0  0  0  0
    9.6605   -4.2477    8.4127 N   0  0  0  0  0  0  0  0  0  0  0  0
    6.4200   -2.9863    8.7666 C   0  0  0  0  0  0  0  0  0  0  0  0
    5.8910   -1.8132    8.2202 C   0  0  0  0  0  0  0  0  0  0  0  0
    4.6144    2.0396    6.8395 N   0  0  0  0  0  0  0  0  0  0  0  0
    4.3760    3.3097    7.3038 O   0  0  0  0  0  0  0  0  0  0  0  0
    1.4561    6.5309    6.8063 H   0  0  0  0  0  0  0  0  0  0  0  0
    1.3549    4.8444    7.3487 H   0  0  0  0  0  0  0  0  0  0  0  0
    1.4376    5.2115    5.6262 H   0  0  0  0  0  0  0  0  0  0  0  0
    3.6702    7.4421    5.8656 H   0  0  0  0  0  0  0  0  0  0  0  0
    3.6415    6.1766    4.6307 H   0  0  0  0  0  0  0  0  0  0  0  0
    5.0585    6.3589    5.6685 H   0  0  0  0  0  0  0  0  0  0  0  0
    3.5158    6.8660    8.3209 H   0  0  0  0  0  0  0  0  0  0  0  0
    4.9041    5.7771    8.1800 H   0  0  0  0  0  0  0  0  0  0  0  0
    3.3800    5.1847    8.8514 H   0  0  0  0  0  0  0  0  0  0  0  0
    3.1635    3.5383    4.2766 H   0  0  0  0  0  0  0  0  0  0  0  0
    3.7885    0.9832    3.8391 H   0  0  0  0  0  0  0  0  0  0  0  0
    4.9446    0.2179    6.9900 H   0  0  0  0  0  0  0  0  0  0  0  0
    6.1511   -2.6248    4.9233 H   0  0  0  0  0  0  0  0  0  0  0  0
    7.0456   -4.6679    5.8684 H   0  0  0  0  0  0  0  0  0  0  0  0
    7.0946   -6.1516    7.8303 H   0  0  0  0  0  0  0  0  0  0  0  0
    6.8822   -5.5324    9.4519 H   0  0  0  0  0  0  0  0  0  0  0  0
    9.4157   -7.2947    9.4671 H   0  0  0  0  0  0  0  0  0  0  0  0
   12.0636   -7.2329   10.0515 H   0  0  0  0  0  0  0  0  0  0  0  0
   12.9241   -5.7871    9.6952 H   0  0  0  0  0  0  0  0  0  0  0  0
    9.4002   -3.3451    8.0257 H   0  0  0  0  0  0  0  0  0  0  0  0
    6.5115   -3.0786    9.8469 H   0  0  0  0  0  0  0  0  0  0  0  0
    5.5729   -1.0176    8.8894 H   0  0  0  0  0  0  0  0  0  0  0  0
  1  2  1  0  0  0  0
  1 27  1  0  0  0  0
  1 28  1  0  0  0  0
  1 29  1  0  0  0  0
  2  3  1  0  0  0  0
  2  4  1  0  0  0  0
  2  5  1  0  0  0  0
  3 30  1  0  0  0  0
  3 31  1  0  0  0  0
  3 32  1  0  0  0  0
  4 33  1  0  0  0  0
  4 34  1  0  0  0  0
  4 35  1  0  0  0  0
  5  6  2  0  0  0  0
  5 26  1  0  0  0  0
  6  7  1  0  0  0  0
  6 36  1  0  0  0  0
  7  8  1  0  0  0  0
  7 25  2  0  0  0  0
  8  9  1  0  0  0  0
  8 37  1  0  0  0  0
  9 10  2  0  0  0  0
  9 11  1  0  0  0  0
 11 12  1  0  0  0  0
 11 38  1  0  0  0  0
 12 13  1  0  0  0  0
 12 24  2  0  0  0  0
 13 14  2  0  0  0  0
 13 39  1  0  0  0  0
 14 15  1  0  0  0  0
 14 40  1  0  0  0  0
 15 16  1  0  0  0  0
 15 23  2  0  0  0  0
 16 17  1  0  0  0  0
 16 41  1  0  0  0  0
 16 42  1  0  0  0  0
 17 18  2  0  0  0  0
 17 22  1  0  0  0  0
 18 19  1  0  0  0  0
 18 43  1  0  0  0  0
 19 20  1  0  0  0  0
 19 21  2  0  0  0  0
 20 44  1  0  0  0  0
 20 45  1  0  0  0  0
 21 22  1  0  0  0  0
 22 46  1  0  0  0  0
 23 24  1  0  0  0  0
 23 47  1  0  0  0  0
 24 48  1  0  0  0  0
 25 26  1  0  0  0  0
M  END
$$$$
