CHEMBL440202
 OpenBabel04072215383D

 52 55  0  0  0  0  0  0  0  0999 V2000
    5.3216   -1.3966    0.9908 C   0  0  0  0  0  0  0  0  0  0  0  0
    4.1394   -0.5919    0.9883 O   0  0  0  0  0  0  0  0  0  0  0  0
    4.3262    0.7581    0.8823 C   0  0  0  0  0  0  0  0  0  0  0  0
    5.4602    1.3094    0.2568 C   0  0  0  0  0  0  0  0  0  0  0  0
    5.7384    2.6693    0.2702 C   0  0  0  0  0  0  0  0  0  0  0  0
    6.9155    3.0706   -0.2500 N   0  0  0  0  0  0  0  0  0  0  0  0
    7.2372    4.3748   -0.1637 C   0  0  0  0  0  0  0  0  0  0  0  0
    6.4405    5.3212    0.4452 C   0  0  0  0  0  0  0  0  0  0  0  0
    5.2176    4.9138    0.9776 C   0  0  0  0  0  0  0  0  0  0  0  0
    4.5143    5.9520    1.5733 O   0  0  0  0  0  0  0  0  0  0  0  0
    3.7187    5.7325    2.6737 C   0  0  0  0  0  0  0  0  0  0  0  0
    4.0040    4.8099    3.6730 C   0  0  0  0  0  0  0  0  0  0  0  0
    3.0129    4.4697    4.5977 C   0  0  0  0  0  0  0  0  0  0  0  0
    1.7572    5.0904    4.5892 C   0  0  0  0  0  0  0  0  0  0  0  0
    0.6738    4.6731    5.4164 N   0  0  0  0  0  0  0  0  0  0  0  0
    0.6497    3.4914    6.1360 C   0  0  0  0  0  0  0  0  0  0  0  0
    1.5426    2.6529    6.1177 O   0  0  0  0  0  0  0  0  0  0  0  0
   -0.5044    3.3327    6.8939 N   0  0  0  0  0  0  0  0  0  0  0  0
   -0.6647    2.2703    7.8293 C   0  0  0  0  0  0  0  0  0  0  0  0
    0.4330    1.6297    8.4249 C   0  0  0  0  0  0  0  0  0  0  0  0
    0.2564    0.5330    9.2653 C   0  0  0  0  0  0  0  0  0  0  0  0
    1.6332   -0.2696    9.9168 Cl  0  0  0  0  0  0  0  0  0  0  0  0
   -1.0176    0.0758    9.5663 C   0  0  0  0  0  0  0  0  0  0  0  0
   -2.1150    0.7425    9.0251 C   0  0  0  0  0  0  0  0  0  0  0  0
   -3.7003    0.1879    9.4041 Cl  0  0  0  0  0  0  0  0  0  0  0  0
   -1.9507    1.8405    8.1684 C   0  0  0  0  0  0  0  0  0  0  0  0
    1.5563    6.1535    3.7029 C   0  0  0  0  0  0  0  0  0  0  0  0
    2.5326    6.4674    2.7438 C   0  0  0  0  0  0  0  0  0  0  0  0
    4.8098    3.5498    0.8505 C   0  0  0  0  0  0  0  0  0  0  0  0
    3.5785    3.0067    1.2699 C   0  0  0  0  0  0  0  0  0  0  0  0
    3.3546    1.6294    1.3702 C   0  0  0  0  0  0  0  0  0  0  0  0
    2.1674    1.3689    1.9923 O   0  0  0  0  0  0  0  0  0  0  0  0
    1.8778    0.0711    2.4792 C   0  0  0  0  0  0  0  0  0  0  0  0
    5.1405   -2.2705    1.6241 H   0  0  0  0  0  0  0  0  0  0  0  0
    6.1987   -0.8845    1.4044 H   0  0  0  0  0  0  0  0  0  0  0  0
    5.5270   -1.7455   -0.0260 H   0  0  0  0  0  0  0  0  0  0  0  0
    6.1840    0.6654   -0.2342 H   0  0  0  0  0  0  0  0  0  0  0  0
    8.1967    4.6415   -0.5997 H   0  0  0  0  0  0  0  0  0  0  0  0
    6.7670    6.3516    0.5106 H   0  0  0  0  0  0  0  0  0  0  0  0
    4.9388    4.2577    3.6856 H   0  0  0  0  0  0  0  0  0  0  0  0
    3.2548    3.6666    5.2877 H   0  0  0  0  0  0  0  0  0  0  0  0
   -0.1677    5.2199    5.3732 H   0  0  0  0  0  0  0  0  0  0  0  0
   -1.3471    3.7757    6.5496 H   0  0  0  0  0  0  0  0  0  0  0  0
    1.4485    1.9691    8.2392 H   0  0  0  0  0  0  0  0  0  0  0  0
   -1.1514   -0.7890   10.2097 H   0  0  0  0  0  0  0  0  0  0  0  0
   -2.8271    2.3212    7.7474 H   0  0  0  0  0  0  0  0  0  0  0  0
    0.6236    6.7106    3.6959 H   0  0  0  0  0  0  0  0  0  0  0  0
    2.3405    7.2485    2.0133 H   0  0  0  0  0  0  0  0  0  0  0  0
    2.7777    3.6553    1.6075 H   0  0  0  0  0  0  0  0  0  0  0  0
    1.1420    0.1857    3.2841 H   0  0  0  0  0  0  0  0  0  0  0  0
    2.7390   -0.4398    2.9169 H   0  0  0  0  0  0  0  0  0  0  0  0
    1.4113   -0.5195    1.6868 H   0  0  0  0  0  0  0  0  0  0  0  0
  1  2  1  0  0  0  0
  1 34  1  0  0  0  0
  1 35  1  0  0  0  0
  1 36  1  0  0  0  0
  2  3  1  0  0  0  0
  3  4  1  0  0  0  0
  3 31  2  0  0  0  0
  4  5  2  0  0  0  0
  4 37  1  0  0  0  0
  5  6  1  0  0  0  0
  5 29  1  0  0  0  0
  6  7  2  0  0  0  0
  7  8  1  0  0  0  0
  7 38  1  0  0  0  0
  8  9  2  0  0  0  0
  8 39  1  0  0  0  0
  9 10  1  0  0  0  0
  9 29  1  0  0  0  0
 10 11  1  0  0  0  0
 11 12  1  0  0  0  0
 11 28  2  0  0  0  0
 12 13  2  0  0  0  0
 12 40  1  0  0  0  0
 13 14  1  0  0  0  0
 13 41  1  0  0  0  0
 14 15  1  0  0  0  0
 14 27  2  0  0  0  0
 15 16  1  0  0  0  0
 15 42  1  0  0  0  0
 16 17  2  0  0  0  0
 16 18  1  0  0  0  0
 18 19  1  0  0  0  0
 18 43  1  0  0  0  0
 19 20  1  0  0  0  0
 19 26  2  0  0  0  0
 20 21  2  0  0  0  0
 20 44  1  0  0  0  0
 21 22  1  0  0  0  0
 21 23  1  0  0  0  0
 23 24  2  0  0  0  0
 23 45  1  0  0  0  0
 24 25  1  0  0  0  0
 24 26  1  0  0  0  0
 26 46  1  0  0  0  0
 27 28  1  0  0  0  0
 27 47  1  0  0  0  0
 28 48  1  0  0  0  0
 29 30  2  0  0  0  0
 30 31  1  0  0  0  0
 30 49  1  0  0  0  0
 31 32  1  0  0  0  0
 32 33  1  0  0  0  0
 33 50  1  0  0  0  0
 33 51  1  0  0  0  0
 33 52  1  0  0  0  0
M  END
$$$$
