CHEMBL1968565
 OpenBabel04072215363D

 33 35  0  0  0  0  0  0  0  0999 V2000
    2.4320    0.1138    0.0365 C   0  0  0  0  0  0  0  0  0  0  0  0
    0.9311    0.0843    0.0564 C   0  0  0  0  0  0  0  0  0  0  0  0
    0.1972    1.1065    0.6662 C   0  0  0  0  0  0  0  0  0  0  0  0
   -1.2013    1.0793    0.6605 C   0  0  0  0  0  0  0  0  0  0  0  0
   -1.8893    0.0251    0.0447 C   0  0  0  0  0  0  0  0  0  0  0  0
   -3.3662    0.0388   -0.0410 C   0  0  0  0  0  0  0  0  0  0  0  0
   -3.9895    0.6129   -1.0926 C   0  0  0  0  0  0  0  0  0  0  0  0
   -3.2048    1.2631   -2.2203 C   0  0  0  0  0  0  0  0  0  0  0  0
   -2.5538    1.8026   -3.1558 N   0  0  0  0  0  0  0  0  0  0  0  0
   -5.4912    0.5646   -1.1391 C   0  0  0  0  0  0  0  0  0  0  0  0
   -6.1979    1.0734   -2.1958 N   0  0  0  0  0  0  0  0  0  0  0  0
   -6.2128    0.0281   -0.1832 N   0  0  0  0  0  0  0  0  0  0  0  0
   -5.5464   -0.5316    0.8689 C   0  0  0  0  0  0  0  0  0  0  0  0
   -6.0095   -1.1778    1.9910 C   0  0  0  0  0  0  0  0  0  0  0  0
   -4.8602   -1.5667    2.7036 C   0  0  0  0  0  0  0  0  0  0  0  0
   -4.7881   -2.3156    3.9813 C   0  0  0  0  0  0  0  0  0  0  0  0
   -3.7389   -1.1827    2.0892 N   0  0  0  0  0  0  0  0  0  0  0  0
   -4.1497   -0.5482    0.9583 N   0  0  0  0  0  0  0  0  0  0  0  0
   -1.1547   -1.0068   -0.5526 C   0  0  0  0  0  0  0  0  0  0  0  0
    0.2450   -0.9773   -0.5464 C   0  0  0  0  0  0  0  0  0  0  0  0
    2.8242    1.0026    0.5419 H   0  0  0  0  0  0  0  0  0  0  0  0
    2.7964    0.1298   -0.9966 H   0  0  0  0  0  0  0  0  0  0  0  0
    2.8364   -0.7673    0.5459 H   0  0  0  0  0  0  0  0  0  0  0  0
    0.7090    1.9404    1.1433 H   0  0  0  0  0  0  0  0  0  0  0  0
   -1.7450    1.8919    1.1361 H   0  0  0  0  0  0  0  0  0  0  0  0
   -5.7948    1.7823   -2.7987 H   0  0  0  0  0  0  0  0  0  0  0  0
   -7.1923    1.1799   -2.0188 H   0  0  0  0  0  0  0  0  0  0  0  0
   -7.0458   -1.3521    2.2435 H   0  0  0  0  0  0  0  0  0  0  0  0
   -5.7888   -2.5463    4.3604 H   0  0  0  0  0  0  0  0  0  0  0  0
   -4.2647   -1.7281    4.7424 H   0  0  0  0  0  0  0  0  0  0  0  0
   -4.2527   -3.2600    3.8425 H   0  0  0  0  0  0  0  0  0  0  0  0
   -1.6587   -1.8411   -1.0353 H   0  0  0  0  0  0  0  0  0  0  0  0
    0.7969   -1.7847   -1.0220 H   0  0  0  0  0  0  0  0  0  0  0  0
  1  2  1  0  0  0  0
  1 21  1  0  0  0  0
  1 22  1  0  0  0  0
  1 23  1  0  0  0  0
  2  3  1  0  0  0  0
  2 20  2  0  0  0  0
  3  4  2  0  0  0  0
  3 24  1  0  0  0  0
  4  5  1  0  0  0  0
  4 25  1  0  0  0  0
  5  6  1  0  0  0  0
  5 19  2  0  0  0  0
  6  7  2  0  0  0  0
  6 18  1  0  0  0  0
  7  8  1  0  0  0  0
  7 10  1  0  0  0  0
  8  9  3  0  0  0  0
 10 11  1  0  0  0  0
 10 12  2  0  0  0  0
 11 26  1  0  0  0  0
 11 27  1  0  0  0  0
 12 13  1  0  0  0  0
 13 14  2  0  0  0  0
 13 18  1  0  0  0  0
 14 15  1  0  0  0  0
 14 28  1  0  0  0  0
 15 16  1  0  0  0  0
 15 17  2  0  0  0  0
 16 29  1  0  0  0  0
 16 30  1  0  0  0  0
 16 31  1  0  0  0  0
 17 18  1  0  0  0  0
 19 20  1  0  0  0  0
 19 32  1  0  0  0  0
 20 33  1  0  0  0  0
M  END
$$$$
