CHEMBL233821
 OpenBabel04072215363D

 41 44  0  0  0  0  0  0  0  0999 V2000
    0.6748    0.1320   -0.7565 O   0  0  0  0  0  0  0  0  0  0  0  0
    1.8289    0.3243   -0.3933 C   0  0  0  0  0  0  0  0  0  0  0  0
    2.2404    0.6333    0.8842 N   0  0  0  0  0  0  0  0  0  0  0  0
    1.5224    0.6474    2.0998 C   0  0  0  0  0  0  0  0  0  0  0  0
    0.2020    0.2108    2.2275 C   0  0  0  0  0  0  0  0  0  0  0  0
   -0.4568    0.2050    3.4731 C   0  0  0  0  0  0  0  0  0  0  0  0
    0.2602    0.6508    4.5899 C   0  0  0  0  0  0  0  0  0  0  0  0
   -0.0757    0.7711    5.9122 N   0  0  0  0  0  0  0  0  0  0  0  0
    0.9248    1.2318    6.6932 N   0  0  0  0  0  0  0  0  0  0  0  0
    1.9246    1.4221    5.8311 C   0  0  0  0  0  0  0  0  0  0  0  0
    1.5786    1.0869    4.5026 C   0  0  0  0  0  0  0  0  0  0  0  0
    2.2120    1.0910    3.2459 C   0  0  0  0  0  0  0  0  0  0  0  0
    2.9815    0.2316   -1.3798 C   0  0  0  0  0  0  0  0  0  0  0  0
    5.0707   -0.2974    2.2000 C   0  0  0  0  0  0  0  0  0  0  0  0
    5.5967   -0.5705    0.8894 C   0  0  0  0  0  0  0  0  0  0  0  0
    4.8063    0.2463    0.1448 N   0  0  0  0  0  0  0  0  0  0  0  0
    4.5385   -0.1696   -1.1264 N   0  0  0  0  0  0  0  0  0  0  0  0
    5.3204    0.2138   -2.3084 C   0  0  0  0  0  0  0  0  0  0  0  0
    6.7650   -0.2584   -2.3979 C   0  0  0  0  0  0  0  0  0  0  0  0
    7.3913    0.1994   -3.7044 C   0  0  0  0  0  0  0  0  0  0  0  0
    7.9991    1.4547   -3.8031 C   0  0  0  0  0  0  0  0  0  0  0  0
    8.5273    1.8531   -5.0243 C   0  0  0  0  0  0  0  0  0  0  0  0
    8.4884    1.0928   -6.1430 N   0  0  0  0  0  0  0  0  0  0  0  0
    7.8929   -0.1094   -6.0357 C   0  0  0  0  0  0  0  0  0  0  0  0
    7.3420   -0.5932   -4.8550 C   0  0  0  0  0  0  0  0  0  0  0  0
    3.2384    0.8312    0.9467 H   0  0  0  0  0  0  0  0  0  0  0  0
   -0.3470   -0.1546    1.3657 H   0  0  0  0  0  0  0  0  0  0  0  0
   -1.4799   -0.1403    3.5557 H   0  0  0  0  0  0  0  0  0  0  0  0
   -0.9679    0.5591    6.3485 H   0  0  0  0  0  0  0  0  0  0  0  0
    2.8693    1.7945    6.2057 H   0  0  0  0  0  0  0  0  0  0  0  0
    3.2340    1.4446    3.1815 H   0  0  0  0  0  0  0  0  0  0  0  0
    5.5867   -0.4280    3.0841 H   0  0  0  0  0  0  0  0  0  0  0  0
    6.4024   -1.1956    0.5290 H   0  0  0  0  0  0  0  0  0  0  0  0
    5.2642    1.3085   -2.3656 H   0  0  0  0  0  0  0  0  0  0  0  0
    4.7622   -0.1870   -3.1660 H   0  0  0  0  0  0  0  0  0  0  0  0
    6.8198   -1.3506   -2.3269 H   0  0  0  0  0  0  0  0  0  0  0  0
    7.3509    0.1361   -1.5605 H   0  0  0  0  0  0  0  0  0  0  0  0
    8.0598    2.1249   -2.9519 H   0  0  0  0  0  0  0  0  0  0  0  0
    9.0085    2.8197   -5.1398 H   0  0  0  0  0  0  0  0  0  0  0  0
    7.8665   -0.6970   -6.9529 H   0  0  0  0  0  0  0  0  0  0  0  0
    6.8588   -1.5658   -4.8545 H   0  0  0  0  0  0  0  0  0  0  0  0
  1  2  2  0  0  0  0
  2  3  1  0  0  0  0
  2 13  1  0  0  0  0
  3  4  1  0  0  0  0
  3 26  1  0  0  0  0
  4  5  1  0  0  0  0
  4 12  2  0  0  0  0
  5  6  2  0  0  0  0
  5 27  1  0  0  0  0
  6  7  1  0  0  0  0
  6 28  1  0  0  0  0
  7  8  1  0  0  0  0
  7 11  2  0  0  0  0
  8  9  1  0  0  0  0
  8 29  1  0  0  0  0
  9 10  2  0  0  0  0
 10 11  1  0  0  0  0
 10 30  1  0  0  0  0
 11 12  1  0  0  0  0
 12 31  1  0  0  0  0
 13 14  2  0  0  0  0
 13 17  1  0  0  0  0
 14 15  1  0  0  0  0
 14 32  1  0  0  0  0
 15 16  2  0  0  0  0
 15 33  1  0  0  0  0
 16 17  1  0  0  0  0
 17 18  1  0  0  0  0
 18 19  1  0  0  0  0
 18 34  1  0  0  0  0
 18 35  1  0  0  0  0
 19 20  1  0  0  0  0
 19 36  1  0  0  0  0
 19 37  1  0  0  0  0
 20 21  1  0  0  0  0
 20 25  2  0  0  0  0
 21 22  2  0  0  0  0
 21 38  1  0  0  0  0
 22 23  1  0  0  0  0
 22 39  1  0  0  0  0
 23 24  2  0  0  0  0
 24 25  1  0  0  0  0
 24 40  1  0  0  0  0
 25 41  1  0  0  0  0
M  END
$$$$
