CHEMBL3963146
 OpenBabel04072215373D

 50 53  0  0  0  0  0  0  0  0999 V2000
    7.8672    0.1549   10.5680 C   0  0  0  0  0  0  0  0  0  0  0  0
    7.3986    0.2310    9.1303 C   0  0  0  0  0  0  0  0  0  0  0  0
    8.4577    0.7406    8.3155 O   0  0  0  0  0  0  0  0  0  0  0  0
    8.0037    0.7505    6.9777 N   0  0  0  0  0  0  0  0  0  0  0  0
    7.3779    1.8910    6.5374 C   0  0  0  0  0  0  0  0  0  0  0  0
    7.0888    2.8430    7.2568 O   0  0  0  0  0  0  0  0  0  0  0  0
    7.0912    1.9639    5.0727 C   0  0  0  0  0  0  0  0  0  0  0  0
    7.1884    3.2565    4.5187 C   0  0  0  0  0  0  0  0  0  0  0  0
    6.9916    3.4639    3.1528 C   0  0  0  0  0  0  0  0  0  0  0  0
    6.7117    2.3887    2.3311 C   0  0  0  0  0  0  0  0  0  0  0  0
    6.6010    1.1060    2.8650 C   0  0  0  0  0  0  0  0  0  0  0  0
    6.7484    0.8721    4.2445 C   0  0  0  0  0  0  0  0  0  0  0  0
    6.5578   -0.8264    4.7952 S   0  0  0  0  0  0  0  0  0  0  0  0
    4.8309   -1.1662    4.4564 C   0  0  0  0  0  0  0  0  0  0  0  0
    4.3762   -1.4775    3.1640 C   0  0  0  0  0  0  0  0  0  0  0  0
    3.0086   -1.7062    2.8920 C   0  0  0  0  0  0  0  0  0  0  0  0
    2.1236   -1.7773    3.9833 C   0  0  0  0  0  0  0  0  0  0  0  0
    0.7274   -1.9766    4.2666 C   0  0  0  0  0  0  0  0  0  0  0  0
   -0.3015   -0.9486    4.4234 C   0  0  0  0  0  0  0  0  0  0  0  0
   -0.0533    0.3692    4.5681 C   0  0  0  0  0  0  0  0  0  0  0  0
   -0.8014    1.2045    5.5415 C   0  0  0  0  0  0  0  0  0  0  0  0
   -0.4929    2.5546    5.6883 C   0  0  0  0  0  0  0  0  0  0  0  0
   -1.0255    3.2616    6.7697 C   0  0  0  0  0  0  0  0  0  0  0  0
   -1.8423    2.6077    7.6823 C   0  0  0  0  0  0  0  0  0  0  0  0
   -2.1072    1.2678    7.4649 C   0  0  0  0  0  0  0  0  0  0  0  0
   -1.6124    0.5621    6.4204 N   0  0  0  0  0  0  0  0  0  0  0  0
    0.7126   -2.8611    5.2899 N   0  0  0  0  0  0  0  0  0  0  0  0
    1.7434   -2.3956    6.0282 N   0  0  0  0  0  0  0  0  0  0  0  0
    2.6835   -1.7600    5.2585 C   0  0  0  0  0  0  0  0  0  0  0  0
    3.9645   -1.2924    5.5457 C   0  0  0  0  0  0  0  0  0  0  0  0
    7.0410   -0.1312   11.2254 H   0  0  0  0  0  0  0  0  0  0  0  0
    8.2688    1.1178   10.8992 H   0  0  0  0  0  0  0  0  0  0  0  0
    8.6691   -0.5828   10.6725 H   0  0  0  0  0  0  0  0  0  0  0  0
    6.5311    0.8967    9.0644 H   0  0  0  0  0  0  0  0  0  0  0  0
    7.1110   -0.7662    8.7776 H   0  0  0  0  0  0  0  0  0  0  0  0
    8.4713    0.1140    6.3430 H   0  0  0  0  0  0  0  0  0  0  0  0
    7.4289    4.1105    5.1524 H   0  0  0  0  0  0  0  0  0  0  0  0
    7.0728    4.4668    2.7391 H   0  0  0  0  0  0  0  0  0  0  0  0
    6.5738    2.5361    1.2599 H   0  0  0  0  0  0  0  0  0  0  0  0
    6.4055    0.2875    2.1811 H   0  0  0  0  0  0  0  0  0  0  0  0
    5.0905   -1.5745    2.3488 H   0  0  0  0  0  0  0  0  0  0  0  0
    2.6821   -1.9428    1.8826 H   0  0  0  0  0  0  0  0  0  0  0  0
   -1.2240   -1.3412    4.8567 H   0  0  0  0  0  0  0  0  0  0  0  0
    0.8742    0.8035    4.2099 H   0  0  0  0  0  0  0  0  0  0  0  0
    0.1880    3.0502    5.0053 H   0  0  0  0  0  0  0  0  0  0  0  0
   -0.7776    4.3098    6.9153 H   0  0  0  0  0  0  0  0  0  0  0  0
   -2.2509    3.1225    8.5454 H   0  0  0  0  0  0  0  0  0  0  0  0
   -2.7240    0.7022    8.1583 H   0  0  0  0  0  0  0  0  0  0  0  0
    1.8064   -2.6697    7.0008 H   0  0  0  0  0  0  0  0  0  0  0  0
    4.2972   -1.1594    6.5683 H   0  0  0  0  0  0  0  0  0  0  0  0
  1  2  1  0  0  0  0
  1 31  1  0  0  0  0
  1 32  1  0  0  0  0
  1 33  1  0  0  0  0
  2  3  1  0  0  0  0
  2 34  1  0  0  0  0
  2 35  1  0  0  0  0
  3  4  1  0  0  0  0
  4  5  1  0  0  0  0
  4 36  1  0  0  0  0
  5  6  2  0  0  0  0
  5  7  1  0  0  0  0
  7  8  1  0  0  0  0
  7 12  2  0  0  0  0
  8  9  2  0  0  0  0
  8 37  1  0  0  0  0
  9 10  1  0  0  0  0
  9 38  1  0  0  0  0
 10 11  2  0  0  0  0
 10 39  1  0  0  0  0
 11 12  1  0  0  0  0
 11 40  1  0  0  0  0
 12 13  1  0  0  0  0
 13 14  1  0  0  0  0
 14 15  1  0  0  0  0
 14 30  2  0  0  0  0
 15 16  2  0  0  0  0
 15 41  1  0  0  0  0
 16 17  1  0  0  0  0
 16 42  1  0  0  0  0
 17 18  1  0  0  0  0
 17 29  2  0  0  0  0
 18 19  1  0  0  0  0
 18 27  2  0  0  0  0
 19 20  2  0  0  0  0
 19 43  1  0  0  0  0
 20 21  1  0  0  0  0
 20 44  1  0  0  0  0
 21 22  1  0  0  0  0
 21 26  2  0  0  0  0
 22 23  2  0  0  0  0
 22 45  1  0  0  0  0
 23 24  1  0  0  0  0
 23 46  1  0  0  0  0
 24 25  2  0  0  0  0
 24 47  1  0  0  0  0
 25 26  1  0  0  0  0
 25 48  1  0  0  0  0
 27 28  1  0  0  0  0
 28 29  1  0  0  0  0
 28 49  1  0  0  0  0
 29 30  1  0  0  0  0
 30 50  1  0  0  0  0
M  END
$$$$
