CHEMBL3898926
 OpenBabel04072215373D

 55 58  0  0  0  0  0  0  0  0999 V2000
    4.4676    5.5934   -0.6877 C   0  0  0  0  0  0  0  0  0  0  0  0
    4.0317    4.1325   -0.5760 C   0  0  0  0  0  0  0  0  0  0  0  0
    2.5000    4.0581   -0.5864 C   0  0  0  0  0  0  0  0  0  0  0  0
    4.6454    3.3582   -1.6721 N   0  0  0  0  0  0  0  0  0  0  0  0
    4.3134    1.9314   -1.5797 C   0  0  0  0  0  0  0  0  0  0  0  0
    5.0284    1.0011   -2.5923 C   0  0  0  0  0  0  0  0  0  0  0  0
    6.5238    1.0350   -2.6043 N   0  0  0  0  0  0  0  0  0  0  0  0
    7.2399    0.4771   -1.4972 C   0  0  0  0  0  0  0  0  0  0  0  0
    6.6312    0.0931   -0.2908 C   0  0  0  0  0  0  0  0  0  0  0  0
    7.3764   -0.2711    0.8412 C   0  0  0  0  0  0  0  0  0  0  0  0
    6.5574   -0.6363    2.3120 Cl  0  0  0  0  0  0  0  0  0  0  0  0
    8.7590   -0.3264    0.7988 C   0  0  0  0  0  0  0  0  0  0  0  0
    9.3818   -0.0827   -0.4106 C   0  0  0  0  0  0  0  0  0  0  0  0
   11.0958   -0.1969   -0.5279 Cl  0  0  0  0  0  0  0  0  0  0  0  0
    8.6341    0.2773   -1.5381 C   0  0  0  0  0  0  0  0  0  0  0  0
    7.0960    1.4297   -3.8542 C   0  0  0  0  0  0  0  0  0  0  0  0
    8.2940    2.1544   -3.9065 C   0  0  0  0  0  0  0  0  0  0  0  0
    8.9466    2.4043   -5.1181 C   0  0  0  0  0  0  0  0  0  0  0  0
    8.3838    2.0303   -6.3243 C   0  0  0  0  0  0  0  0  0  0  0  0
    9.0332    2.2983   -7.4715 N   0  0  0  0  0  0  0  0  0  0  0  0
    8.3999    1.9353   -8.6140 C   0  0  0  0  0  0  0  0  0  0  0  0
    7.1555    1.3305   -8.6241 C   0  0  0  0  0  0  0  0  0  0  0  0
    6.4884    0.9778   -9.8624 C   0  0  0  0  0  0  0  0  0  0  0  0
    6.9089    1.0723  -11.2104 C   0  0  0  0  0  0  0  0  0  0  0  0
    5.9954    0.6221  -12.0730 N   0  0  0  0  0  0  0  0  0  0  0  0
    4.9785    0.2378  -11.2809 N   0  0  0  0  0  0  0  0  0  0  0  0
    3.7941   -0.3450  -11.8566 C   0  0  0  0  0  0  0  0  0  0  0  0
    5.2216    0.4363   -9.9541 C   0  0  0  0  0  0  0  0  0  0  0  0
    6.5126    1.0369   -7.4677 N   0  0  0  0  0  0  0  0  0  0  0  0
    7.1291    1.3818   -6.3180 C   0  0  0  0  0  0  0  0  0  0  0  0
    6.5334    1.0735   -5.0950 C   0  0  0  0  0  0  0  0  0  0  0  0
    4.0371    6.1850    0.1286 H   0  0  0  0  0  0  0  0  0  0  0  0
    4.1383    6.0393   -1.6327 H   0  0  0  0  0  0  0  0  0  0  0  0
    5.5567    5.6884   -0.6230 H   0  0  0  0  0  0  0  0  0  0  0  0
    4.3954    3.7503    0.3866 H   0  0  0  0  0  0  0  0  0  0  0  0
    2.0946    4.3415   -1.5640 H   0  0  0  0  0  0  0  0  0  0  0  0
    2.0708    4.7299    0.1643 H   0  0  0  0  0  0  0  0  0  0  0  0
    2.1422    3.0510   -0.3474 H   0  0  0  0  0  0  0  0  0  0  0  0
    5.6634    3.4527   -1.6327 H   0  0  0  0  0  0  0  0  0  0  0  0
    3.2423    1.8049   -1.7782 H   0  0  0  0  0  0  0  0  0  0  0  0
    4.4679    1.6041   -0.5518 H   0  0  0  0  0  0  0  0  0  0  0  0
    4.6104    1.3057   -3.5581 H   0  0  0  0  0  0  0  0  0  0  0  0
    4.6914   -0.0333   -2.4445 H   0  0  0  0  0  0  0  0  0  0  0  0
    5.5567    0.0497   -0.1850 H   0  0  0  0  0  0  0  0  0  0  0  0
    9.3364   -0.5805    1.6817 H   0  0  0  0  0  0  0  0  0  0  0  0
    9.1867    0.3924   -2.4647 H   0  0  0  0  0  0  0  0  0  0  0  0
    8.7625    2.5179   -2.9940 H   0  0  0  0  0  0  0  0  0  0  0  0
    9.9154    2.8982   -5.1171 H   0  0  0  0  0  0  0  0  0  0  0  0
    8.9454    2.1669   -9.5216 H   0  0  0  0  0  0  0  0  0  0  0  0
    7.8439    1.4470  -11.6068 H   0  0  0  0  0  0  0  0  0  0  0  0
    3.8694   -0.3255  -12.9494 H   0  0  0  0  0  0  0  0  0  0  0  0
    2.9276    0.2367  -11.5348 H   0  0  0  0  0  0  0  0  0  0  0  0
    3.7150   -1.3784  -11.5092 H   0  0  0  0  0  0  0  0  0  0  0  0
    4.4924    0.1807   -9.1963 H   0  0  0  0  0  0  0  0  0  0  0  0
    5.6094    0.5045   -5.1486 H   0  0  0  0  0  0  0  0  0  0  0  0
  1  2  1  0  0  0  0
  1 32  1  0  0  0  0
  1 33  1  0  0  0  0
  1 34  1  0  0  0  0
  2  3  1  0  0  0  0
  2  4  1  0  0  0  0
  2 35  1  0  0  0  0
  3 36  1  0  0  0  0
  3 37  1  0  0  0  0
  3 38  1  0  0  0  0
  4  5  1  0  0  0  0
  4 39  1  0  0  0  0
  5  6  1  0  0  0  0
  5 40  1  0  0  0  0
  5 41  1  0  0  0  0
  6  7  1  0  0  0  0
  6 42  1  0  0  0  0
  6 43  1  0  0  0  0
  7  8  1  0  0  0  0
  7 16  1  0  0  0  0
  8  9  1  0  0  0  0
  8 15  2  0  0  0  0
  9 10  2  0  0  0  0
  9 44  1  0  0  0  0
 10 11  1  0  0  0  0
 10 12  1  0  0  0  0
 12 13  2  0  0  0  0
 12 45  1  0  0  0  0
 13 14  1  0  0  0  0
 13 15  1  0  0  0  0
 15 46  1  0  0  0  0
 16 17  1  0  0  0  0
 16 31  2  0  0  0  0
 17 18  2  0  0  0  0
 17 47  1  0  0  0  0
 18 19  1  0  0  0  0
 18 48  1  0  0  0  0
 19 20  1  0  0  0  0
 19 30  2  0  0  0  0
 20 21  2  0  0  0  0
 21 22  1  0  0  0  0
 21 49  1  0  0  0  0
 22 23  1  0  0  0  0
 22 29  2  0  0  0  0
 23 24  1  0  0  0  0
 23 28  2  0  0  0  0
 24 25  2  0  0  0  0
 24 50  1  0  0  0  0
 25 26  1  0  0  0  0
 26 27  1  0  0  0  0
 26 28  1  0  0  0  0
 27 51  1  0  0  0  0
 27 52  1  0  0  0  0
 27 53  1  0  0  0  0
 28 54  1  0  0  0  0
 29 30  1  0  0  0  0
 30 31  1  0  0  0  0
 31 55  1  0  0  0  0
M  END
$$$$
