CHEMBL3747481
 OpenBabel04072215373D

 48 52  0  0  0  0  0  0  0  0999 V2000
    2.5663    1.1329    1.0393 O   0  0  0  0  0  0  0  0  0  0  0  0
    2.4316    0.2129    0.2327 C   0  0  0  0  0  0  0  0  0  0  0  0
    1.3300   -0.5815   -0.0146 N   0  0  0  0  0  0  0  0  0  0  0  0
    0.1265   -0.4396    0.6563 C   0  0  0  0  0  0  0  0  0  0  0  0
    0.0471   -0.0079    1.9760 C   0  0  0  0  0  0  0  0  0  0  0  0
   -1.1997    0.1736    2.5628 C   0  0  0  0  0  0  0  0  0  0  0  0
   -2.3660   -0.0569    1.8340 C   0  0  0  0  0  0  0  0  0  0  0  0
   -2.2940   -0.4933    0.5013 C   0  0  0  0  0  0  0  0  0  0  0  0
   -3.5154   -0.6611   -0.3604 C   0  0  0  0  0  0  0  0  0  0  0  0
   -4.6738   -0.3539    0.2693 F   0  0  0  0  0  0  0  0  0  0  0  0
   -3.4687    0.1344   -1.4724 F   0  0  0  0  0  0  0  0  0  0  0  0
   -3.6513   -1.9297   -0.8259 F   0  0  0  0  0  0  0  0  0  0  0  0
   -1.0320   -0.7179   -0.0655 C   0  0  0  0  0  0  0  0  0  0  0  0
    3.4531   -0.1018   -0.6551 N   0  0  0  0  0  0  0  0  0  0  0  0
    3.6402   -1.3758   -1.2266 C   0  0  0  0  0  0  0  0  0  0  0  0
    4.5921   -1.2121   -2.2097 C   0  0  0  0  0  0  0  0  0  0  0  0
    5.4300   -0.2463   -1.5997 C   0  0  0  0  0  0  0  0  0  0  0  0
    6.8042   -0.1006   -1.4789 C   0  0  0  0  0  0  0  0  0  0  0  0
    7.3041    1.0070   -0.7890 C   0  0  0  0  0  0  0  0  0  0  0  0
    8.6181    1.1115   -0.3935 O   0  0  0  0  0  0  0  0  0  0  0  0
    9.5710    0.3910   -1.0927 C   0  0  0  0  0  0  0  0  0  0  0  0
    9.3916    0.1588   -2.4074 N   0  0  0  0  0  0  0  0  0  0  0  0
   10.4131   -0.3924   -3.0753 C   0  0  0  0  0  0  0  0  0  0  0  0
   11.6411   -0.5741   -2.5930 N   0  0  0  0  0  0  0  0  0  0  0  0
   11.7611   -0.2768   -1.2890 C   0  0  0  0  0  0  0  0  0  0  0  0
   10.7413    0.1167   -0.4643 C   0  0  0  0  0  0  0  0  0  0  0  0
   11.2573    0.3343    0.9001 C   0  0  0  0  0  0  0  0  0  0  0  0
   12.6468    0.7923    0.6497 N   0  0  0  0  0  0  0  0  0  0  0  0
   13.0542    0.0091   -0.5647 C   0  0  0  0  0  0  0  0  0  0  0  0
    6.4487    2.0164   -0.3386 C   0  0  0  0  0  0  0  0  0  0  0  0
    5.0657    1.8469   -0.3864 C   0  0  0  0  0  0  0  0  0  0  0  0
    4.6123    0.6203   -0.8836 C   0  0  0  0  0  0  0  0  0  0  0  0
    1.3180   -1.0610   -0.9082 H   0  0  0  0  0  0  0  0  0  0  0  0
    0.9417    0.1733    2.5654 H   0  0  0  0  0  0  0  0  0  0  0  0
   -1.2720    0.5063    3.6011 H   0  0  0  0  0  0  0  0  0  0  0  0
   -3.3267    0.1348    2.2959 H   0  0  0  0  0  0  0  0  0  0  0  0
   -0.9655   -1.0499   -1.0964 H   0  0  0  0  0  0  0  0  0  0  0  0
    3.5604   -2.1964   -0.5172 H   0  0  0  0  0  0  0  0  0  0  0  0
    4.2866   -1.0885   -3.2498 H   0  0  0  0  0  0  0  0  0  0  0  0
    7.4262   -0.9157   -1.8246 H   0  0  0  0  0  0  0  0  0  0  0  0
   10.2231   -0.6802   -4.0997 H   0  0  0  0  0  0  0  0  0  0  0  0
   10.6842    1.0463    1.4994 H   0  0  0  0  0  0  0  0  0  0  0  0
   11.3001   -0.6188    1.4453 H   0  0  0  0  0  0  0  0  0  0  0  0
   12.5634    1.7662    0.3437 H   0  0  0  0  0  0  0  0  0  0  0  0
   13.5508   -0.9199   -0.2654 H   0  0  0  0  0  0  0  0  0  0  0  0
   13.7139    0.6124   -1.1950 H   0  0  0  0  0  0  0  0  0  0  0  0
    6.8537    2.9000    0.1480 H   0  0  0  0  0  0  0  0  0  0  0  0
    4.3968    2.5608    0.0878 H   0  0  0  0  0  0  0  0  0  0  0  0
  1  2  2  0  0  0  0
  2  3  1  0  0  0  0
  2 14  1  0  0  0  0
  3  4  1  0  0  0  0
  3 33  1  0  0  0  0
  4  5  1  0  0  0  0
  4 13  2  0  0  0  0
  5  6  2  0  0  0  0
  5 34  1  0  0  0  0
  6  7  1  0  0  0  0
  6 35  1  0  0  0  0
  7  8  2  0  0  0  0
  7 36  1  0  0  0  0
  8  9  1  0  0  0  0
  8 13  1  0  0  0  0
  9 10  1  0  0  0  0
  9 11  1  0  0  0  0
  9 12  1  0  0  0  0
 13 37  1  0  0  0  0
 14 15  1  0  0  0  0
 14 32  1  0  0  0  0
 15 16  2  0  0  0  0
 15 38  1  0  0  0  0
 16 17  1  0  0  0  0
 16 39  1  0  0  0  0
 17 18  1  0  0  0  0
 17 32  2  0  0  0  0
 18 19  2  0  0  0  0
 18 40  1  0  0  0  0
 19 20  1  0  0  0  0
 19 30  1  0  0  0  0
 20 21  1  0  0  0  0
 21 22  1  0  0  0  0
 21 26  2  0  0  0  0
 22 23  2  0  0  0  0
 23 24  1  0  0  0  0
 23 41  1  0  0  0  0
 24 25  2  0  0  0  0
 25 26  1  0  0  0  0
 25 29  1  0  0  0  0
 26 27  1  0  0  0  0
 27 28  1  0  0  0  0
 27 42  1  0  0  0  0
 27 43  1  0  0  0  0
 28 29  1  0  0  0  0
 28 44  1  0  0  0  0
 29 45  1  0  0  0  0
 29 46  1  0  0  0  0
 30 31  2  0  0  0  0
 30 47  1  0  0  0  0
 31 32  1  0  0  0  0
 31 48  1  0  0  0  0
M  END
$$$$
