CHEMBL298566
 OpenBabel04072215363D

 70 74  0  0  1  0  0  0  0  0999 V2000
    2.1582    3.0679   -1.5140 C   0  0  0  0  0  0  0  0  0  0  0  0
    2.5719    1.6787   -1.9583 C   0  0  0  0  0  0  0  0  0  0  0  0
    3.3959    0.7584   -0.6749 S   0  0  0  0  0  0  0  0  0  0  0  0
    4.6051    1.4608   -0.3100 O   0  0  0  0  0  0  0  0  0  0  0  0
    2.4095    0.3969    0.3265 O   0  0  0  0  0  0  0  0  0  0  0  0
    3.9051   -0.7594   -1.4779 C   0  0  0  0  0  0  0  0  0  0  0  0
    2.9801   -1.8226   -1.5294 C   0  0  0  0  0  0  0  0  0  0  0  0
    3.3472   -3.0437   -2.0922 C   0  0  0  0  0  0  0  0  0  0  0  0
    4.6410   -3.1641   -2.5675 C   0  0  0  0  0  0  0  0  0  0  0  0
    5.5874   -2.1366   -2.4920 C   0  0  0  0  0  0  0  0  0  0  0  0
    5.2263   -0.9087   -1.9512 C   0  0  0  0  0  0  0  0  0  0  0  0
    6.8278   -2.7005   -3.0693 C   0  0  0  0  0  0  0  0  0  0  0  0
    8.0286   -2.1030   -3.1478 C   0  0  0  0  0  0  0  0  0  0  0  0
    9.1637   -2.6924   -3.7722 C   0  0  0  0  0  0  0  0  0  0  0  0
   10.0438   -3.3529   -2.9497 N   0  0  0  0  0  0  0  0  0  0  0  0
   11.1061   -3.7943   -3.6780 C   0  0  0  0  0  0  0  0  0  0  0  0
   10.9092   -3.4542   -5.0014 C   0  0  0  0  0  0  0  0  0  0  0  0
    9.6692   -2.7351   -5.0779 C   0  0  0  0  0  0  0  0  0  0  0  0
    9.0568   -2.1453   -6.3369 C   0  0  0  0  0  0  0  0  0  0  0  0
    8.2093   -0.9122   -6.0249 C   0  0  0  0  0  0  0  0  0  0  0  0
    7.4714   -0.2295   -7.1735 C   0  0  0  0  0  0  0  0  0  0  0  0
    6.7027    0.9333   -6.6587 N   0  0  0  0  0  0  0  0  0  0  0  0
    5.6733    0.5420   -5.6860 C   0  0  0  0  0  0  0  0  0  0  0  0
    4.9560    1.7481   -5.1000 C   0  0  0  0  0  0  0  0  0  0  0  0
    4.3735    2.6567   -6.1633 C   0  0  3  0  0  0  0  0  0  0  0  0
    3.2079    2.0540   -6.7249 O   0  0  0  0  0  0  0  0  0  0  0  0
    5.4082    2.9691   -7.2382 C   0  0  0  0  0  0  0  0  0  0  0  0
    6.1113    1.7099   -7.7590 C   0  0  0  0  0  0  0  0  0  0  0  0
   11.9153   -3.7931   -6.0573 C   0  0  0  0  0  0  0  0  0  0  0  0
   12.9765   -4.7938   -5.5416 C   0  0  0  0  0  0  0  0  0  0  0  0
   13.4334   -4.4869   -4.1035 C   0  0  0  0  0  0  0  0  0  0  0  0
   12.2587   -4.5435   -3.1151 C   0  0  0  0  0  0  0  0  0  0  0  0
    6.4970   -4.0981   -3.5428 C   0  0  0  0  0  0  0  0  0  0  0  0
    7.1956   -4.9104   -4.1118 O   0  0  0  0  0  0  0  0  0  0  0  0
    5.1754   -4.2913   -3.1781 N   0  0  0  0  0  0  0  0  0  0  0  0
    1.6990    3.6094   -2.3466 H   0  0  0  0  0  0  0  0  0  0  0  0
    3.0235    3.6463   -1.1749 H   0  0  0  0  0  0  0  0  0  0  0  0
    1.4365    3.0252   -0.6923 H   0  0  0  0  0  0  0  0  0  0  0  0
    3.2801    1.7776   -2.7740 H   0  0  0  0  0  0  0  0  0  0  0  0
    1.7041    1.1049   -2.2954 H   0  0  0  0  0  0  0  0  0  0  0  0
    1.9796   -1.7078   -1.1139 H   0  0  0  0  0  0  0  0  0  0  0  0
    2.6466   -3.8713   -2.1341 H   0  0  0  0  0  0  0  0  0  0  0  0
    5.9393   -0.0917   -1.8835 H   0  0  0  0  0  0  0  0  0  0  0  0
    8.1589   -1.0898   -2.7762 H   0  0  0  0  0  0  0  0  0  0  0  0
    9.9223   -3.4852   -1.9558 H   0  0  0  0  0  0  0  0  0  0  0  0
    8.4346   -2.9142   -6.8128 H   0  0  0  0  0  0  0  0  0  0  0  0
    9.8462   -1.8784   -7.0486 H   0  0  0  0  0  0  0  0  0  0  0  0
    8.8182   -0.1748   -5.4867 H   0  0  0  0  0  0  0  0  0  0  0  0
    7.4359   -1.2685   -5.3544 H   0  0  0  0  0  0  0  0  0  0  0  0
    6.8036   -0.9411   -7.6774 H   0  0  0  0  0  0  0  0  0  0  0  0
    8.2088    0.1143   -7.9088 H   0  0  0  0  0  0  0  0  0  0  0  0
    6.1093    0.0367   -4.8221 H   0  0  0  0  0  0  0  0  0  0  0  0
    4.9513   -0.1515   -6.1351 H   0  0  0  0  0  0  0  0  0  0  0  0
    5.6506    2.3140   -4.4641 H   0  0  0  0  0  0  0  0  0  0  0  0
    4.1563    1.3617   -4.4674 H   0  0  0  0  0  0  0  0  0  0  0  0
    4.0357    3.5879   -5.6944 H   0  0  0  0  0  0  0  0  0  0  0  0
    3.4720    1.2435   -7.1905 H   0  0  0  0  0  0  0  0  0  0  0  0
    6.1605    3.6504   -6.8187 H   0  0  0  0  0  0  0  0  0  0  0  0
    4.9297    3.4816   -8.0796 H   0  0  0  0  0  0  0  0  0  0  0  0
    6.8992    2.0280   -8.4509 H   0  0  0  0  0  0  0  0  0  0  0  0
    5.4052    1.0952   -8.3291 H   0  0  0  0  0  0  0  0  0  0  0  0
   12.4201   -2.8713   -6.3695 H   0  0  0  0  0  0  0  0  0  0  0  0
   11.4221   -4.2147   -6.9403 H   0  0  0  0  0  0  0  0  0  0  0  0
   13.8424   -4.7885   -6.2139 H   0  0  0  0  0  0  0  0  0  0  0  0
   12.5622   -5.8101   -5.5677 H   0  0  0  0  0  0  0  0  0  0  0  0
   13.8888   -3.4883   -4.0780 H   0  0  0  0  0  0  0  0  0  0  0  0
   14.2064   -5.1989   -3.7923 H   0  0  0  0  0  0  0  0  0  0  0  0
   12.5627   -4.1274   -2.1485 H   0  0  0  0  0  0  0  0  0  0  0  0
   11.9640   -5.5871   -2.9521 H   0  0  0  0  0  0  0  0  0  0  0  0
    4.6937   -5.1566   -3.3612 H   0  0  0  0  0  0  0  0  0  0  0  0
  1  2  1  0  0  0  0
  1 36  1  0  0  0  0
  1 37  1  0  0  0  0
  1 38  1  0  0  0  0
  2  3  1  0  0  0  0
  2 39  1  0  0  0  0
  2 40  1  0  0  0  0
  3  4  2  0  0  0  0
  3  5  2  0  0  0  0
  3  6  1  0  0  0  0
  6  7  1  0  0  0  0
  6 11  2  0  0  0  0
  7  8  2  0  0  0  0
  7 41  1  0  0  0  0
  8  9  1  0  0  0  0
  8 42  1  0  0  0  0
  9 10  2  0  0  0  0
  9 35  1  0  0  0  0
 10 11  1  0  0  0  0
 10 12  1  0  0  0  0
 11 43  1  0  0  0  0
 12 13  2  0  0  0  0
 12 33  1  0  0  0  0
 13 14  1  0  0  0  0
 13 44  1  0  0  0  0
 14 15  1  0  0  0  0
 14 18  2  0  0  0  0
 15 16  1  0  0  0  0
 15 45  1  0  0  0  0
 16 17  2  0  0  0  0
 16 32  1  0  0  0  0
 17 18  1  0  0  0  0
 17 29  1  0  0  0  0
 18 19  1  0  0  0  0
 19 20  1  0  0  0  0
 19 46  1  0  0  0  0
 19 47  1  0  0  0  0
 20 21  1  0  0  0  0
 20 48  1  0  0  0  0
 20 49  1  0  0  0  0
 21 22  1  0  0  0  0
 21 50  1  0  0  0  0
 21 51  1  0  0  0  0
 22 23  1  0  0  0  0
 22 28  1  0  0  0  0
 23 24  1  0  0  0  0
 23 52  1  0  0  0  0
 23 53  1  0  0  0  0
 24 25  1  0  0  0  0
 24 54  1  0  0  0  0
 24 55  1  0  0  0  0
 25 26  1  0  0  0  0
 25 27  1  0  0  0  0
 25 56  1  0  0  0  0
 26 57  1  0  0  0  0
 27 28  1  0  0  0  0
 27 58  1  0  0  0  0
 27 59  1  0  0  0  0
 28 60  1  0  0  0  0
 28 61  1  0  0  0  0
 29 30  1  0  0  0  0
 29 62  1  0  0  0  0
 29 63  1  0  0  0  0
 30 31  1  0  0  0  0
 30 64  1  0  0  0  0
 30 65  1  0  0  0  0
 31 32  1  0  0  0  0
 31 66  1  0  0  0  0
 31 67  1  0  0  0  0
 32 68  1  0  0  0  0
 32 69  1  0  0  0  0
 33 34  2  0  0  0  0
 33 35  1  0  0  0  0
 35 70  1  0  0  0  0
M  END
$$$$
