CHEMBL1965910
 OpenBabel04072215363D

 68 73  0  0  1  0  0  0  0  0999 V2000
    1.0539    0.4215   -0.0071 N   0  0  0  0  0  0  0  0  0  0  0  0
    2.4311    0.2446   -0.0449 C   0  0  0  0  0  0  0  0  0  0  0  0
    3.1703    1.3718   -0.0261 N   0  0  0  0  0  0  0  0  0  0  0  0
    4.5105    1.2604   -0.0488 C   0  0  0  0  0  0  0  0  0  0  0  0
    5.2475    0.1421   -0.0611 N   0  0  0  0  0  0  0  0  0  0  0  0
    4.4783   -0.9589   -0.0865 C   0  0  0  0  0  0  0  0  0  0  0  0
    3.0847   -1.0019   -0.0988 C   0  0  0  0  0  0  0  0  0  0  0  0
    2.7172   -2.3883   -0.1696 C   0  0  0  0  0  0  0  0  0  0  0  0
    1.4223   -3.0562   -0.2319 C   0  0  0  0  0  0  0  0  0  0  0  0
    0.3348   -2.5094   -0.9168 C   0  0  0  0  0  0  0  0  0  0  0  0
   -0.9021   -3.1595   -0.9189 C   0  0  0  0  0  0  0  0  0  0  0  0
   -1.0490   -4.3852   -0.2709 C   0  0  0  0  0  0  0  0  0  0  0  0
    0.0323   -4.9566    0.3939 C   0  0  0  0  0  0  0  0  0  0  0  0
   -0.2037   -6.1578    1.0029 O   0  0  0  0  0  0  0  0  0  0  0  0
    0.7625   -6.5393    1.9816 C   0  0  0  0  0  0  0  0  0  0  0  0
    0.1699   -7.6209    2.8368 C   0  0  0  0  0  0  0  0  0  0  0  0
    0.4652   -8.9674    2.5962 C   0  0  0  0  0  0  0  0  0  0  0  0
   -0.0936   -9.9561    3.4044 C   0  0  0  0  0  0  0  0  0  0  0  0
   -0.9548   -9.6071    4.4503 C   0  0  0  0  0  0  0  0  0  0  0  0
   -1.2583   -8.2709    4.6849 C   0  0  0  0  0  0  0  0  0  0  0  0
   -0.7041   -7.2803    3.8787 C   0  0  0  0  0  0  0  0  0  0  0  0
    1.2589   -4.2946    0.4029 C   0  0  0  0  0  0  0  0  0  0  0  0
    3.8959   -3.1156   -0.1599 C   0  0  0  0  0  0  0  0  0  0  0  0
    4.9515   -2.2455   -0.1052 N   0  0  0  0  0  0  0  0  0  0  0  0
    6.3564   -2.6391   -0.1192 C   0  0  3  0  0  0  0  0  0  0  0  0
    6.6802   -3.5069   -1.3434 C   0  0  0  0  0  0  0  0  0  0  0  0
    8.1605   -3.8668   -1.3806 C   0  0  0  0  0  0  0  0  0  0  0  0
    8.5921   -4.6035   -0.1008 C   0  0  3  0  0  0  0  0  0  0  0  0
    9.9914   -5.0648   -0.0729 N   0  0  0  0  0  0  0  0  0  0  0  0
   11.0314   -4.0422   -0.2133 C   0  0  0  0  0  0  0  0  0  0  0  0
   11.3820   -3.9969   -1.6879 C   0  0  0  0  0  0  0  0  0  0  0  0
   11.1318   -5.4109   -2.1771 C   0  0  0  0  0  0  0  0  0  0  0  0
   10.2898   -6.0799   -1.0958 C   0  0  0  0  0  0  0  0  0  0  0  0
    8.2540   -3.7569    1.1475 C   0  0  0  0  0  0  0  0  0  0  0  0
    6.7776   -3.3448    1.1796 C   0  0  0  0  0  0  0  0  0  0  0  0
    0.8212    1.3747    0.2482 H   0  0  0  0  0  0  0  0  0  0  0  0
    0.5517   -0.3039    0.4889 H   0  0  0  0  0  0  0  0  0  0  0  0
    5.0627    2.1948   -0.0578 H   0  0  0  0  0  0  0  0  0  0  0  0
    0.4342   -1.5778   -1.4681 H   0  0  0  0  0  0  0  0  0  0  0  0
   -1.7494   -2.7107   -1.4308 H   0  0  0  0  0  0  0  0  0  0  0  0
   -2.0093   -4.8944   -0.2801 H   0  0  0  0  0  0  0  0  0  0  0  0
    1.0234   -5.6980    2.6381 H   0  0  0  0  0  0  0  0  0  0  0  0
    1.6765   -6.9016    1.4931 H   0  0  0  0  0  0  0  0  0  0  0  0
    1.1237   -9.2519    1.7782 H   0  0  0  0  0  0  0  0  0  0  0  0
    0.1359  -11.0004    3.2175 H   0  0  0  0  0  0  0  0  0  0  0  0
   -1.3857  -10.3838    5.0708 H   0  0  0  0  0  0  0  0  0  0  0  0
   -1.9332   -7.9983    5.4907 H   0  0  0  0  0  0  0  0  0  0  0  0
   -0.9532   -6.2367    4.0616 H   0  0  0  0  0  0  0  0  0  0  0  0
    2.1119   -4.7348    0.9074 H   0  0  0  0  0  0  0  0  0  0  0  0
    4.0682   -4.1837   -0.2047 H   0  0  0  0  0  0  0  0  0  0  0  0
    6.9434   -1.7137   -0.2041 H   0  0  0  0  0  0  0  0  0  0  0  0
    6.4078   -2.9779   -2.2643 H   0  0  0  0  0  0  0  0  0  0  0  0
    6.0929   -4.4342   -1.3321 H   0  0  0  0  0  0  0  0  0  0  0  0
    8.7283   -2.9370   -1.4977 H   0  0  0  0  0  0  0  0  0  0  0  0
    8.3426   -4.4823   -2.2669 H   0  0  0  0  0  0  0  0  0  0  0  0
    7.9684   -5.5061   -0.0165 H   0  0  0  0  0  0  0  0  0  0  0  0
   11.9115   -4.3749    0.3525 H   0  0  0  0  0  0  0  0  0  0  0  0
   10.7650   -3.0569    0.1782 H   0  0  0  0  0  0  0  0  0  0  0  0
   12.4144   -3.6794   -1.8582 H   0  0  0  0  0  0  0  0  0  0  0  0
   10.7383   -3.2950   -2.2285 H   0  0  0  0  0  0  0  0  0  0  0  0
   12.0804   -5.9431   -2.3072 H   0  0  0  0  0  0  0  0  0  0  0  0
   10.6170   -5.4007   -3.1438 H   0  0  0  0  0  0  0  0  0  0  0  0
   10.8733   -6.8832   -0.6303 H   0  0  0  0  0  0  0  0  0  0  0  0
    9.3971   -6.5566   -1.5178 H   0  0  0  0  0  0  0  0  0  0  0  0
    8.8617   -2.8453    1.1768 H   0  0  0  0  0  0  0  0  0  0  0  0
    8.4865   -4.3225    2.0586 H   0  0  0  0  0  0  0  0  0  0  0  0
    6.6044   -2.6842    2.0385 H   0  0  0  0  0  0  0  0  0  0  0  0
    6.1617   -4.2378    1.3472 H   0  0  0  0  0  0  0  0  0  0  0  0
  1  2  1  0  0  0  0
  1 36  1  0  0  0  0
  1 37  1  0  0  0  0
  2  3  1  0  0  0  0
  2  7  2  0  0  0  0
  3  4  2  0  0  0  0
  4  5  1  0  0  0  0
  4 38  1  0  0  0  0
  5  6  2  0  0  0  0
  6  7  1  0  0  0  0
  6 24  1  0  0  0  0
  7  8  1  0  0  0  0
  8  9  1  0  0  0  0
  8 23  2  0  0  0  0
  9 10  1  0  0  0  0
  9 22  2  0  0  0  0
 10 11  2  0  0  0  0
 10 39  1  0  0  0  0
 11 12  1  0  0  0  0
 11 40  1  0  0  0  0
 12 13  2  0  0  0  0
 12 41  1  0  0  0  0
 13 14  1  0  0  0  0
 13 22  1  0  0  0  0
 14 15  1  0  0  0  0
 15 16  1  0  0  0  0
 15 42  1  0  0  0  0
 15 43  1  0  0  0  0
 16 17  1  0  0  0  0
 16 21  2  0  0  0  0
 17 18  2  0  0  0  0
 17 44  1  0  0  0  0
 18 19  1  0  0  0  0
 18 45  1  0  0  0  0
 19 20  2  0  0  0  0
 19 46  1  0  0  0  0
 20 21  1  0  0  0  0
 20 47  1  0  0  0  0
 21 48  1  0  0  0  0
 22 49  1  0  0  0  0
 23 24  1  0  0  0  0
 23 50  1  0  0  0  0
 24 25  1  0  0  0  0
 25 26  1  0  0  0  0
 25 35  1  0  0  0  0
 25 51  1  0  0  0  0
 26 27  1  0  0  0  0
 26 52  1  0  0  0  0
 26 53  1  0  0  0  0
 27 28  1  0  0  0  0
 27 54  1  0  0  0  0
 27 55  1  0  0  0  0
 28 29  1  0  0  0  0
 28 34  1  0  0  0  0
 28 56  1  0  0  0  0
 29 30  1  0  0  0  0
 29 33  1  0  0  0  0
 30 31  1  0  0  0  0
 30 57  1  0  0  0  0
 30 58  1  0  0  0  0
 31 32  1  0  0  0  0
 31 59  1  0  0  0  0
 31 60  1  0  0  0  0
 32 33  1  0  0  0  0
 32 61  1  0  0  0  0
 32 62  1  0  0  0  0
 33 63  1  0  0  0  0
 33 64  1  0  0  0  0
 34 35  1  0  0  0  0
 34 65  1  0  0  0  0
 34 66  1  0  0  0  0
 35 67  1  0  0  0  0
 35 68  1  0  0  0  0
M  END
$$$$
