CHEMBL2004118
 OpenBabel04072215363D

 45 48  0  0  0  0  0  0  0  0999 V2000
    4.8143   -4.2677   -6.8226 C   0  0  0  0  0  0  0  0  0  0  0  0
    5.5785   -4.3695   -5.5133 C   0  0  0  0  0  0  0  0  0  0  0  0
    4.7973   -5.1461   -4.4920 C   0  0  0  0  0  0  0  0  0  0  0  0
    3.9118   -4.4509   -3.7143 N   0  0  0  0  0  0  0  0  0  0  0  0
    3.1914   -5.0929   -2.7714 C   0  0  0  0  0  0  0  0  0  0  0  0
    2.2935   -4.3105   -2.0428 N   0  0  0  0  0  0  0  0  0  0  0  0
    1.5383   -4.6381   -0.9122 C   0  0  0  0  0  0  0  0  0  0  0  0
    0.3174   -4.0115   -0.6774 C   0  0  0  0  0  0  0  0  0  0  0  0
   -0.4978   -4.3982    0.4009 C   0  0  0  0  0  0  0  0  0  0  0  0
   -0.1466   -5.4359    1.2871 C   0  0  0  0  0  0  0  0  0  0  0  0
   -0.9765   -5.7592    2.3463 N   0  0  0  0  0  0  0  0  0  0  0  0
   -2.4416   -5.6404    2.2994 C   0  0  0  0  0  0  0  0  0  0  0  0
   -2.9310   -4.6933    3.4058 C   0  0  0  0  0  0  0  0  0  0  0  0
   -2.4689   -5.1128    4.7006 O   0  0  0  0  0  0  0  0  0  0  0  0
   -1.0339   -5.1291    4.7307 C   0  0  0  0  0  0  0  0  0  0  0  0
   -0.4458   -6.0844    3.6813 C   0  0  0  0  0  0  0  0  0  0  0  0
    1.0762   -6.0839    1.0083 C   0  0  0  0  0  0  0  0  0  0  0  0
    1.6127   -7.5178    1.8354 Cl  0  0  0  0  0  0  0  0  0  0  0  0
    1.9007   -5.6720   -0.0474 C   0  0  0  0  0  0  0  0  0  0  0  0
    3.2483   -6.4117   -2.5316 N   0  0  0  0  0  0  0  0  0  0  0  0
    4.0888   -7.0685   -3.3246 C   0  0  0  0  0  0  0  0  0  0  0  0
    4.2895   -8.4177   -3.2783 N   0  0  0  0  0  0  0  0  0  0  0  0
    5.1944   -8.7755   -4.2439 C   0  0  0  0  0  0  0  0  0  0  0  0
    5.5869   -7.6244   -4.8990 C   0  0  0  0  0  0  0  0  0  0  0  0
    4.8843   -6.5326   -4.3169 C   0  0  0  0  0  0  0  0  0  0  0  0
    5.3974   -3.7076   -7.5597 H   0  0  0  0  0  0  0  0  0  0  0  0
    3.8580   -3.7537   -6.6813 H   0  0  0  0  0  0  0  0  0  0  0  0
    4.6037   -5.2599   -7.2368 H   0  0  0  0  0  0  0  0  0  0  0  0
    5.7855   -3.3650   -5.1256 H   0  0  0  0  0  0  0  0  0  0  0  0
    6.5485   -4.8504   -5.6836 H   0  0  0  0  0  0  0  0  0  0  0  0
    2.1855   -3.3995   -2.4591 H   0  0  0  0  0  0  0  0  0  0  0  0
   -0.0316   -3.2240   -1.3413 H   0  0  0  0  0  0  0  0  0  0  0  0
   -1.4239   -3.8468    0.5398 H   0  0  0  0  0  0  0  0  0  0  0  0
   -2.8594   -6.6389    2.4762 H   0  0  0  0  0  0  0  0  0  0  0  0
   -2.8205   -5.3139    1.3260 H   0  0  0  0  0  0  0  0  0  0  0  0
   -4.0245   -4.6893    3.4339 H   0  0  0  0  0  0  0  0  0  0  0  0
   -2.5950   -3.6657    3.2240 H   0  0  0  0  0  0  0  0  0  0  0  0
   -0.7225   -5.4465    5.7308 H   0  0  0  0  0  0  0  0  0  0  0  0
   -0.6628   -4.1090    4.5741 H   0  0  0  0  0  0  0  0  0  0  0  0
   -0.7279   -7.1166    3.9219 H   0  0  0  0  0  0  0  0  0  0  0  0
    0.6417   -5.9923    3.7472 H   0  0  0  0  0  0  0  0  0  0  0  0
    2.8439   -6.1917   -0.1928 H   0  0  0  0  0  0  0  0  0  0  0  0
    3.8188   -9.0317   -2.6284 H   0  0  0  0  0  0  0  0  0  0  0  0
    5.4740   -9.8116   -4.3790 H   0  0  0  0  0  0  0  0  0  0  0  0
    6.2938   -7.5797   -5.7161 H   0  0  0  0  0  0  0  0  0  0  0  0
  1  2  1  0  0  0  0
  1 26  1  0  0  0  0
  1 27  1  0  0  0  0
  1 28  1  0  0  0  0
  2  3  1  0  0  0  0
  2 29  1  0  0  0  0
  2 30  1  0  0  0  0
  3  4  1  0  0  0  0
  3 25  2  0  0  0  0
  4  5  2  0  0  0  0
  5  6  1  0  0  0  0
  5 20  1  0  0  0  0
  6  7  1  0  0  0  0
  6 31  1  0  0  0  0
  7  8  1  0  0  0  0
  7 19  2  0  0  0  0
  8  9  2  0  0  0  0
  8 32  1  0  0  0  0
  9 10  1  0  0  0  0
  9 33  1  0  0  0  0
 10 11  1  0  0  0  0
 10 17  2  0  0  0  0
 11 12  1  0  0  0  0
 11 16  1  0  0  0  0
 12 13  1  0  0  0  0
 12 34  1  0  0  0  0
 12 35  1  0  0  0  0
 13 14  1  0  0  0  0
 13 36  1  0  0  0  0
 13 37  1  0  0  0  0
 14 15  1  0  0  0  0
 15 16  1  0  0  0  0
 15 38  1  0  0  0  0
 15 39  1  0  0  0  0
 16 40  1  0  0  0  0
 16 41  1  0  0  0  0
 17 18  1  0  0  0  0
 17 19  1  0  0  0  0
 19 42  1  0  0  0  0
 20 21  2  0  0  0  0
 21 22  1  0  0  0  0
 21 25  1  0  0  0  0
 22 23  1  0  0  0  0
 22 43  1  0  0  0  0
 23 24  2  0  0  0  0
 23 44  1  0  0  0  0
 24 25  1  0  0  0  0
 24 45  1  0  0  0  0
M  END
$$$$
