CHEMBL3605107
 OpenBabel04072215363D

 54 58  0  0  0  0  0  0  0  0999 V2000
    4.3317   -1.5473    2.6497 C   0  0  0  0  0  0  0  0  0  0  0  0
    5.1992   -0.4016    2.6698 N   0  0  0  0  0  0  0  0  0  0  0  0
    5.8823   -0.0160    3.8047 C   0  0  0  0  0  0  0  0  0  0  0  0
    5.8643   -0.6829    4.8398 O   0  0  0  0  0  0  0  0  0  0  0  0
    6.7427    1.2154    3.6778 C   0  0  0  0  0  0  0  0  0  0  0  0
    6.1290    2.2780    2.9021 N   0  0  0  0  0  0  0  0  0  0  0  0
    5.8424    3.5412    3.3338 C   0  0  0  0  0  0  0  0  0  0  0  0
    5.4752    4.2648    2.2154 C   0  0  0  0  0  0  0  0  0  0  0  0
    5.2117    5.6936    2.2236 C   0  0  0  0  0  0  0  0  0  0  0  0
    5.8477    6.5258    3.1292 C   0  0  0  0  0  0  0  0  0  0  0  0
    5.6763    7.8511    3.2086 N   0  0  0  0  0  0  0  0  0  0  0  0
    4.8488    8.4698    2.3490 C   0  0  0  0  0  0  0  0  0  0  0  0
    4.7430    9.8305    2.5937 N   0  0  0  0  0  0  0  0  0  0  0  0
    4.1754    7.7382    1.3224 C   0  0  0  0  0  0  0  0  0  0  0  0
    3.3021    8.1641    0.2142 C   0  0  0  0  0  0  0  0  0  0  0  0
    2.8893    9.5160   -0.1831 C   0  0  0  0  0  0  0  0  0  0  0  0
    3.7630   10.5905   -0.0320 C   0  0  0  0  0  0  0  0  0  0  0  0
    3.3344   11.8941   -0.2532 C   0  0  0  0  0  0  0  0  0  0  0  0
    2.1002   12.1342   -0.8553 C   0  0  0  0  0  0  0  0  0  0  0  0
    1.6781   13.3803   -1.2699 O   0  0  0  0  0  0  0  0  0  0  0  0
    2.6391   14.3201   -1.5795 C   0  0  0  0  0  0  0  0  0  0  0  0
    3.8298   14.0114   -2.2508 C   0  0  0  0  0  0  0  0  0  0  0  0
    4.8268   14.9731   -2.3832 C   0  0  0  0  0  0  0  0  0  0  0  0
    4.5976   16.2717   -1.9331 C   0  0  0  0  0  0  0  0  0  0  0  0
    3.3706   16.6069   -1.3585 C   0  0  0  0  0  0  0  0  0  0  0  0
    2.3898   15.6305   -1.1777 C   0  0  0  0  0  0  0  0  0  0  0  0
    1.2290   11.0697   -1.0714 C   0  0  0  0  0  0  0  0  0  0  0  0
    1.6115    9.7719   -0.7109 C   0  0  0  0  0  0  0  0  0  0  0  0
    2.8743    7.0910   -0.5397 C   0  0  0  0  0  0  0  0  0  0  0  0
    3.3851    5.6059    0.0740 S   0  0  0  0  0  0  0  0  0  0  0  0
    4.3557    6.3367    1.3052 C   0  0  0  0  0  0  0  0  0  0  0  0
    5.5177    3.3149    1.1719 C   0  0  0  0  0  0  0  0  0  0  0  0
    5.9012    2.1041    1.5835 N   0  0  0  0  0  0  0  0  0  0  0  0
    3.8490   -1.6077    1.6737 H   0  0  0  0  0  0  0  0  0  0  0  0
    3.5793   -1.4443    3.4382 H   0  0  0  0  0  0  0  0  0  0  0  0
    4.9251   -2.4493    2.8338 H   0  0  0  0  0  0  0  0  0  0  0  0
    5.2034    0.2417    1.8699 H   0  0  0  0  0  0  0  0  0  0  0  0
    7.6908    0.9601    3.1943 H   0  0  0  0  0  0  0  0  0  0  0  0
    6.9471    1.6108    4.6786 H   0  0  0  0  0  0  0  0  0  0  0  0
    5.9623    3.8189    4.3723 H   0  0  0  0  0  0  0  0  0  0  0  0
    6.5572    6.1371    3.8566 H   0  0  0  0  0  0  0  0  0  0  0  0
    5.1800   10.0488    3.4824 H   0  0  0  0  0  0  0  0  0  0  0  0
    3.8139   10.2069    2.4622 H   0  0  0  0  0  0  0  0  0  0  0  0
    4.7927   10.4434    0.2844 H   0  0  0  0  0  0  0  0  0  0  0  0
    4.0100   12.7051    0.0056 H   0  0  0  0  0  0  0  0  0  0  0  0
    4.0188   13.0029   -2.6112 H   0  0  0  0  0  0  0  0  0  0  0  0
    5.7841   14.7023   -2.8204 H   0  0  0  0  0  0  0  0  0  0  0  0
    5.3767   17.0222   -2.0328 H   0  0  0  0  0  0  0  0  0  0  0  0
    3.1873   17.6259   -1.0302 H   0  0  0  0  0  0  0  0  0  0  0  0
    1.4477   15.8861   -0.7005 H   0  0  0  0  0  0  0  0  0  0  0  0
    0.2539   11.2446   -1.5183 H   0  0  0  0  0  0  0  0  0  0  0  0
    0.8965    8.9669   -0.8634 H   0  0  0  0  0  0  0  0  0  0  0  0
    2.2561    7.1018   -1.4301 H   0  0  0  0  0  0  0  0  0  0  0  0
    5.3096    3.4497    0.1166 H   0  0  0  0  0  0  0  0  0  0  0  0
  1  2  1  0  0  0  0
  1 34  1  0  0  0  0
  1 35  1  0  0  0  0
  1 36  1  0  0  0  0
  2  3  1  0  0  0  0
  2 37  1  0  0  0  0
  3  4  2  0  0  0  0
  3  5  1  0  0  0  0
  5  6  1  0  0  0  0
  5 38  1  0  0  0  0
  5 39  1  0  0  0  0
  6  7  1  0  0  0  0
  6 33  1  0  0  0  0
  7  8  2  0  0  0  0
  7 40  1  0  0  0  0
  8  9  1  0  0  0  0
  8 32  1  0  0  0  0
  9 10  1  0  0  0  0
  9 31  2  0  0  0  0
 10 11  2  0  0  0  0
 10 41  1  0  0  0  0
 11 12  1  0  0  0  0
 12 13  1  0  0  0  0
 12 14  2  0  0  0  0
 13 42  1  0  0  0  0
 13 43  1  0  0  0  0
 14 15  1  0  0  0  0
 14 31  1  0  0  0  0
 15 16  1  0  0  0  0
 15 29  2  0  0  0  0
 16 17  1  0  0  0  0
 16 28  2  0  0  0  0
 17 18  2  0  0  0  0
 17 44  1  0  0  0  0
 18 19  1  0  0  0  0
 18 45  1  0  0  0  0
 19 20  1  0  0  0  0
 19 27  2  0  0  0  0
 20 21  1  0  0  0  0
 21 22  1  0  0  0  0
 21 26  2  0  0  0  0
 22 23  2  0  0  0  0
 22 46  1  0  0  0  0
 23 24  1  0  0  0  0
 23 47  1  0  0  0  0
 24 25  2  0  0  0  0
 24 48  1  0  0  0  0
 25 26  1  0  0  0  0
 25 49  1  0  0  0  0
 26 50  1  0  0  0  0
 27 28  1  0  0  0  0
 27 51  1  0  0  0  0
 28 52  1  0  0  0  0
 29 30  1  0  0  0  0
 29 53  1  0  0  0  0
 30 31  1  0  0  0  0
 32 33  2  0  0  0  0
 32 54  1  0  0  0  0
M  END
$$$$
