CHEMBL4083853
 OpenBabel04072215383D

 80 84  0  0  0  0  0  0  0  0999 V2000
    1.0073   -0.0765    0.1341 C   0  0  0  0  0  0  0  0  0  0  0  0
    2.5093   -0.1039    0.0379 C   0  0  0  0  0  0  0  0  0  0  0  0
    3.2056    1.1118    0.0343 C   0  0  0  0  0  0  0  0  0  0  0  0
    4.5929    1.1290   -0.0876 C   0  0  0  0  0  0  0  0  0  0  0  0
    5.3126   -0.0658   -0.2065 C   0  0  0  0  0  0  0  0  0  0  0  0
    6.7872    0.0428   -0.3244 C   0  0  0  0  0  0  0  0  0  0  0  0
    7.3230    0.9662    0.2826 O   0  0  0  0  0  0  0  0  0  0  0  0
    7.4185   -0.8517   -1.1805 N   0  0  0  0  0  0  0  0  0  0  0  0
    8.7925   -0.7939   -1.5287 C   0  0  0  0  0  0  0  0  0  0  0  0
    9.7278   -0.0747   -0.7912 C   0  0  0  0  0  0  0  0  0  0  0  0
   11.0384    0.0709   -1.2430 C   0  0  0  0  0  0  0  0  0  0  0  0
   11.4597   -0.5051   -2.4507 C   0  0  0  0  0  0  0  0  0  0  0  0
   12.8567   -0.1679   -2.9334 C   0  0  0  0  0  0  0  0  0  0  0  0
   12.8516    0.5316   -4.2180 N   0  0  0  0  0  0  0  0  0  0  0  0
   12.1434    1.8227   -4.2056 C   0  0  0  0  0  0  0  0  0  0  0  0
   12.1431    2.4598   -5.6159 C   0  0  0  0  0  0  0  0  0  0  0  0
   13.4826    2.6562   -6.2073 N   0  0  0  0  0  0  0  0  0  0  0  0
   14.1927    3.7565   -5.5638 C   0  0  0  0  0  0  0  0  0  0  0  0
   14.2390    1.3893   -6.1159 C   0  0  0  0  0  0  0  0  0  0  0  0
   14.2241    0.7163   -4.7231 C   0  0  0  0  0  0  0  0  0  0  0  0
   10.5519   -1.3077   -3.1759 C   0  0  0  0  0  0  0  0  0  0  0  0
   10.8804   -1.9949   -4.4896 C   0  0  0  0  0  0  0  0  0  0  0  0
   12.1675   -1.9340   -4.9185 F   0  0  0  0  0  0  0  0  0  0  0  0
   10.6069   -3.3338   -4.4239 F   0  0  0  0  0  0  0  0  0  0  0  0
   10.1126   -1.5271   -5.5164 F   0  0  0  0  0  0  0  0  0  0  0  0
    9.2248   -1.4494   -2.6884 C   0  0  0  0  0  0  0  0  0  0  0  0
    4.6367   -1.2884   -0.1759 C   0  0  0  0  0  0  0  0  0  0  0  0
    3.2364   -1.3076   -0.0633 C   0  0  0  0  0  0  0  0  0  0  0  0
    2.5688   -2.5757   -0.0718 C   0  0  0  0  0  0  0  0  0  0  0  0
    2.0049   -3.6367   -0.1165 C   0  0  0  0  0  0  0  0  0  0  0  0
    1.2961   -4.8784   -0.1882 C   0  0  0  0  0  0  0  0  0  0  0  0
   -0.0833   -4.8927   -0.3504 C   0  0  0  0  0  0  0  0  0  0  0  0
   -0.8193   -6.0223   -0.4347 N   0  0  0  0  0  0  0  0  0  0  0  0
   -0.1283   -7.1841   -0.3500 C   0  0  0  0  0  0  0  0  0  0  0  0
    1.2582   -7.3077   -0.1731 C   0  0  0  0  0  0  0  0  0  0  0  0
    1.8431   -8.5691   -0.1104 N   0  0  0  0  0  0  0  0  0  0  0  0
    3.2708   -8.7540   -0.4240 C   0  0  0  0  0  0  0  0  0  0  0  0
    3.5411  -10.2551   -0.7106 C   0  0  0  0  0  0  0  0  0  0  0  0
    3.1295  -11.1348    0.4096 N   0  0  0  0  0  0  0  0  0  0  0  0
    3.3491  -12.5402    0.0741 C   0  0  0  0  0  0  0  0  0  0  0  0
    1.7005  -10.8959    0.7155 C   0  0  0  0  0  0  0  0  0  0  0  0
    1.4039   -9.4113    1.0255 C   0  0  0  0  0  0  0  0  0  0  0  0
    1.9676   -6.1037   -0.1046 C   0  0  0  0  0  0  0  0  0  0  0  0
    0.6327    0.9494    0.2291 H   0  0  0  0  0  0  0  0  0  0  0  0
    0.6635   -0.6310    1.0126 H   0  0  0  0  0  0  0  0  0  0  0  0
    0.5633   -0.5026   -0.7710 H   0  0  0  0  0  0  0  0  0  0  0  0
    2.6748    2.0579    0.1220 H   0  0  0  0  0  0  0  0  0  0  0  0
    5.1163    2.0845   -0.0924 H   0  0  0  0  0  0  0  0  0  0  0  0
    6.8293   -1.4402   -1.7549 H   0  0  0  0  0  0  0  0  0  0  0  0
    9.4666    0.4110    0.1438 H   0  0  0  0  0  0  0  0  0  0  0  0
   11.7181    0.6833   -0.6524 H   0  0  0  0  0  0  0  0  0  0  0  0
   13.4087   -1.1137   -3.0102 H   0  0  0  0  0  0  0  0  0  0  0  0
   13.3889    0.4283   -2.1794 H   0  0  0  0  0  0  0  0  0  0  0  0
   12.5913    2.5098   -3.4767 H   0  0  0  0  0  0  0  0  0  0  0  0
   11.0954    1.6858   -3.9169 H   0  0  0  0  0  0  0  0  0  0  0  0
   11.5958    3.4099   -5.5931 H   0  0  0  0  0  0  0  0  0  0  0  0
   11.5688    1.8081   -6.2893 H   0  0  0  0  0  0  0  0  0  0  0  0
   13.6194    4.6853   -5.6596 H   0  0  0  0  0  0  0  0  0  0  0  0
   15.1528    3.9305   -6.0616 H   0  0  0  0  0  0  0  0  0  0  0  0
   14.3876    3.5868   -4.5003 H   0  0  0  0  0  0  0  0  0  0  0  0
   15.2760    1.5432   -6.4391 H   0  0  0  0  0  0  0  0  0  0  0  0
   13.8067    0.6863   -6.8407 H   0  0  0  0  0  0  0  0  0  0  0  0
   14.8179    1.3124   -4.0177 H   0  0  0  0  0  0  0  0  0  0  0  0
   14.7173   -0.2592   -4.8139 H   0  0  0  0  0  0  0  0  0  0  0  0
    8.5210   -2.0421   -3.2723 H   0  0  0  0  0  0  0  0  0  0  0  0
    5.1868   -2.2249   -0.2125 H   0  0  0  0  0  0  0  0  0  0  0  0
   -0.6553   -3.9764   -0.4316 H   0  0  0  0  0  0  0  0  0  0  0  0
   -0.7436   -8.0740   -0.4625 H   0  0  0  0  0  0  0  0  0  0  0  0
    3.8967   -8.4157    0.4117 H   0  0  0  0  0  0  0  0  0  0  0  0
    3.5475   -8.1800   -1.3164 H   0  0  0  0  0  0  0  0  0  0  0  0
    4.6118  -10.3850   -0.9053 H   0  0  0  0  0  0  0  0  0  0  0  0
    3.0032  -10.5383   -1.6261 H   0  0  0  0  0  0  0  0  0  0  0  0
    4.4110  -12.7275   -0.1180 H   0  0  0  0  0  0  0  0  0  0  0  0
    2.7776  -12.8540   -0.8071 H   0  0  0  0  0  0  0  0  0  0  0  0
    3.0629  -13.1826    0.9146 H   0  0  0  0  0  0  0  0  0  0  0  0
    1.4040  -11.4965    1.5835 H   0  0  0  0  0  0  0  0  0  0  0  0
    1.0742  -11.2084   -0.1316 H   0  0  0  0  0  0  0  0  0  0  0  0
    1.9351   -9.1072    1.9376 H   0  0  0  0  0  0  0  0  0  0  0  0
    0.3308   -9.3114    1.2238 H   0  0  0  0  0  0  0  0  0  0  0  0
    3.0434   -6.1065    0.0392 H   0  0  0  0  0  0  0  0  0  0  0  0
  1  2  1  0  0  0  0
  1 44  1  0  0  0  0
  1 45  1  0  0  0  0
  1 46  1  0  0  0  0
  2  3  1  0  0  0  0
  2 28  2  0  0  0  0
  3  4  2  0  0  0  0
  3 47  1  0  0  0  0
  4  5  1  0  0  0  0
  4 48  1  0  0  0  0
  5  6  1  0  0  0  0
  5 27  2  0  0  0  0
  6  7  2  0  0  0  0
  6  8  1  0  0  0  0
  8  9  1  0  0  0  0
  8 49  1  0  0  0  0
  9 10  1  0  0  0  0
  9 26  2  0  0  0  0
 10 11  2  0  0  0  0
 10 50  1  0  0  0  0
 11 12  1  0  0  0  0
 11 51  1  0  0  0  0
 12 13  1  0  0  0  0
 12 21  2  0  0  0  0
 13 14  1  0  0  0  0
 13 52  1  0  0  0  0
 13 53  1  0  0  0  0
 14 15  1  0  0  0  0
 14 20  1  0  0  0  0
 15 16  1  0  0  0  0
 15 54  1  0  0  0  0
 15 55  1  0  0  0  0
 16 17  1  0  0  0  0
 16 56  1  0  0  0  0
 16 57  1  0  0  0  0
 17 18  1  0  0  0  0
 17 19  1  0  0  0  0
 18 58  1  0  0  0  0
 18 59  1  0  0  0  0
 18 60  1  0  0  0  0
 19 20  1  0  0  0  0
 19 61  1  0  0  0  0
 19 62  1  0  0  0  0
 20 63  1  0  0  0  0
 20 64  1  0  0  0  0
 21 22  1  0  0  0  0
 21 26  1  0  0  0  0
 22 23  1  0  0  0  0
 22 24  1  0  0  0  0
 22 25  1  0  0  0  0
 26 65  1  0  0  0  0
 27 28  1  0  0  0  0
 27 66  1  0  0  0  0
 28 29  1  0  0  0  0
 29 30  3  0  0  0  0
 30 31  1  0  0  0  0
 31 32  1  0  0  0  0
 31 43  2  0  0  0  0
 32 33  2  0  0  0  0
 32 67  1  0  0  0  0
 33 34  1  0  0  0  0
 34 35  2  0  0  0  0
 34 68  1  0  0  0  0
 35 36  1  0  0  0  0
 35 43  1  0  0  0  0
 36 37  1  0  0  0  0
 36 42  1  0  0  0  0
 37 38  1  0  0  0  0
 37 69  1  0  0  0  0
 37 70  1  0  0  0  0
 38 39  1  0  0  0  0
 38 71  1  0  0  0  0
 38 72  1  0  0  0  0
 39 40  1  0  0  0  0
 39 41  1  0  0  0  0
 40 73  1  0  0  0  0
 40 74  1  0  0  0  0
 40 75  1  0  0  0  0
 41 42  1  0  0  0  0
 41 76  1  0  0  0  0
 41 77  1  0  0  0  0
 42 78  1  0  0  0  0
 42 79  1  0  0  0  0
 43 80  1  0  0  0  0
M  END
$$$$
