CHEMBL4285034
 OpenBabel04072215383D

 79 84  0  0  0  0  0  0  0  0999 V2000
    1.0838   -0.2722    0.0235 C   0  0  0  0  0  0  0  0  0  0  0  0
    2.5684   -0.1274    0.0253 C   0  0  0  0  0  0  0  0  0  0  0  0
    3.3648    1.0780    0.0723 C   0  0  0  0  0  0  0  0  0  0  0  0
    2.9734    2.4931    0.1360 C   0  0  0  0  0  0  0  0  0  0  0  0
    1.9156    2.9258   -0.2988 O   0  0  0  0  0  0  0  0  0  0  0  0
    3.9333    3.2646    0.7550 N   0  0  0  0  0  0  0  0  0  0  0  0
    3.8506    4.6952    0.9666 C   0  0  0  0  0  0  0  0  0  0  0  0
    5.1187    5.2314    1.6533 C   0  0  0  0  0  0  0  0  0  0  0  0
    5.3205    4.6202    3.0527 C   0  0  0  0  0  0  0  0  0  0  0  0
    6.5052    5.0890    3.7923 N   0  0  0  0  0  0  0  0  0  0  0  0
    7.8014    4.8186    3.1277 C   0  0  0  0  0  0  0  0  0  0  0  0
    8.2261    3.3388    3.1319 C   0  0  0  0  0  0  0  0  0  0  0  0
    8.2537    2.8029    4.4611 O   0  0  0  0  0  0  0  0  0  0  0  0
    6.9808    2.9642    5.0986 C   0  0  0  0  0  0  0  0  0  0  0  0
    6.5604    4.4481    5.1341 C   0  0  0  0  0  0  0  0  0  0  0  0
    4.6914    0.6629    0.0268 C   0  0  0  0  0  0  0  0  0  0  0  0
    4.7351   -0.6916   -0.0220 N   0  0  0  0  0  0  0  0  0  0  0  0
    5.8577   -1.4260   -0.0609 N   0  0  0  0  0  0  0  0  0  0  0  0
    5.6553   -2.7039   -0.1196 C   0  0  0  0  0  0  0  0  0  0  0  0
    4.4420   -3.3361   -0.1142 N   0  0  0  0  0  0  0  0  0  0  0  0
    3.3863   -2.5977   -0.0051 C   0  0  0  0  0  0  0  0  0  0  0  0
    2.1166   -3.0847    0.2311 O   0  0  0  0  0  0  0  0  0  0  0  0
    2.1069   -4.2898    0.9489 C   0  0  0  0  0  0  0  0  0  0  0  0
    3.0081   -4.5130    1.9938 C   0  0  0  0  0  0  0  0  0  0  0  0
    2.9978   -5.7194    2.6734 C   0  0  0  0  0  0  0  0  0  0  0  0
    2.0277   -6.6756    2.3862 C   0  0  0  0  0  0  0  0  0  0  0  0
    1.8953   -7.8393    3.1561 N   0  0  0  0  0  0  0  0  0  0  0  0
    2.3881   -8.0008    4.4405 C   0  0  0  0  0  0  0  0  0  0  0  0
    2.9948   -7.1849    5.1166 O   0  0  0  0  0  0  0  0  0  0  0  0
    2.0920   -9.3339    5.0403 C   0  0  0  0  0  0  0  0  0  0  0  0
    3.2039  -10.3088    4.8265 C   0  0  0  0  0  0  0  0  0  0  0  0
    3.1998  -10.9539    3.7907 O   0  0  0  0  0  0  0  0  0  0  0  0
    4.2043  -10.3642    5.7902 N   0  0  0  0  0  0  0  0  0  0  0  0
    5.4447  -10.9604    5.4929 C   0  0  0  0  0  0  0  0  0  0  0  0
    6.0630  -10.7175    4.2566 C   0  0  0  0  0  0  0  0  0  0  0  0
    7.2082  -11.4178    3.8814 C   0  0  0  0  0  0  0  0  0  0  0  0
    7.7333  -12.3560    4.7603 C   0  0  0  0  0  0  0  0  0  0  0  0
    8.7868  -13.0961    4.3739 F   0  0  0  0  0  0  0  0  0  0  0  0
    7.1917  -12.5461    6.0210 C   0  0  0  0  0  0  0  0  0  0  0  0
    6.0511  -11.8240    6.4095 C   0  0  0  0  0  0  0  0  0  0  0  0
    0.6713   -9.9117    4.9273 C   0  0  0  0  0  0  0  0  0  0  0  0
    1.1500   -9.3527    6.2300 C   0  0  0  0  0  0  0  0  0  0  0  0
    1.1251   -6.4599    1.3384 C   0  0  0  0  0  0  0  0  0  0  0  0
    1.1532   -5.2528    0.6423 C   0  0  0  0  0  0  0  0  0  0  0  0
    0.2268   -5.0192   -0.2986 F   0  0  0  0  0  0  0  0  0  0  0  0
    3.4710   -1.1824   -0.0043 C   0  0  0  0  0  0  0  0  0  0  0  0
    0.5590    0.6851    0.0049 H   0  0  0  0  0  0  0  0  0  0  0  0
    0.7545   -0.8202    0.9140 H   0  0  0  0  0  0  0  0  0  0  0  0
    0.7691   -0.8469   -0.8554 H   0  0  0  0  0  0  0  0  0  0  0  0
    4.6520    2.7557    1.2457 H   0  0  0  0  0  0  0  0  0  0  0  0
    2.9546    4.9107    1.5576 H   0  0  0  0  0  0  0  0  0  0  0  0
    3.7260    5.1686   -0.0140 H   0  0  0  0  0  0  0  0  0  0  0  0
    5.0503    6.3229    1.7342 H   0  0  0  0  0  0  0  0  0  0  0  0
    5.9765    5.0023    1.0109 H   0  0  0  0  0  0  0  0  0  0  0  0
    5.3396    3.5306    2.9730 H   0  0  0  0  0  0  0  0  0  0  0  0
    4.4303    4.8718    3.6432 H   0  0  0  0  0  0  0  0  0  0  0  0
    8.5639    5.3870    3.6781 H   0  0  0  0  0  0  0  0  0  0  0  0
    7.8233    5.2181    2.1101 H   0  0  0  0  0  0  0  0  0  0  0  0
    9.2390    3.2462    2.7259 H   0  0  0  0  0  0  0  0  0  0  0  0
    7.5648    2.7252    2.5102 H   0  0  0  0  0  0  0  0  0  0  0  0
    7.0713    2.5801    6.1195 H   0  0  0  0  0  0  0  0  0  0  0  0
    6.2444    2.3395    4.5848 H   0  0  0  0  0  0  0  0  0  0  0  0
    7.2952    5.0007    5.7330 H   0  0  0  0  0  0  0  0  0  0  0  0
    5.6002    4.5551    5.6510 H   0  0  0  0  0  0  0  0  0  0  0  0
    5.6156    1.2221    0.0028 H   0  0  0  0  0  0  0  0  0  0  0  0
    6.5363   -3.3676   -0.1389 H   0  0  0  0  0  0  0  0  0  0  0  0
    3.7474   -3.7723    2.2828 H   0  0  0  0  0  0  0  0  0  0  0  0
    3.7686   -5.8840    3.4212 H   0  0  0  0  0  0  0  0  0  0  0  0
    1.2920   -8.5673    2.7953 H   0  0  0  0  0  0  0  0  0  0  0  0
    3.9313  -10.2351    6.7607 H   0  0  0  0  0  0  0  0  0  0  0  0
    5.6571   -9.9751    3.5719 H   0  0  0  0  0  0  0  0  0  0  0  0
    7.6634  -11.2633    2.9109 H   0  0  0  0  0  0  0  0  0  0  0  0
    7.6318  -13.2779    6.6909 H   0  0  0  0  0  0  0  0  0  0  0  0
    5.6108  -12.0056    7.3850 H   0  0  0  0  0  0  0  0  0  0  0  0
    0.5588  -10.9866    4.8533 H   0  0  0  0  0  0  0  0  0  0  0  0
   -0.0830   -9.3594    4.3835 H   0  0  0  0  0  0  0  0  0  0  0  0
    1.3058  -10.0453    7.0473 H   0  0  0  0  0  0  0  0  0  0  0  0
    0.6928   -8.4116    6.5379 H   0  0  0  0  0  0  0  0  0  0  0  0
    0.3653   -7.1906    1.0825 H   0  0  0  0  0  0  0  0  0  0  0  0
  1  2  1  0  0  0  0
  1 47  1  0  0  0  0
  1 48  1  0  0  0  0
  1 49  1  0  0  0  0
  2  3  1  0  0  0  0
  2 46  2  0  0  0  0
  3  4  1  0  0  0  0
  3 16  2  0  0  0  0
  4  5  2  0  0  0  0
  4  6  1  0  0  0  0
  6  7  1  0  0  0  0
  6 50  1  0  0  0  0
  7  8  1  0  0  0  0
  7 51  1  0  0  0  0
  7 52  1  0  0  0  0
  8  9  1  0  0  0  0
  8 53  1  0  0  0  0
  8 54  1  0  0  0  0
  9 10  1  0  0  0  0
  9 55  1  0  0  0  0
  9 56  1  0  0  0  0
 10 11  1  0  0  0  0
 10 15  1  0  0  0  0
 11 12  1  0  0  0  0
 11 57  1  0  0  0  0
 11 58  1  0  0  0  0
 12 13  1  0  0  0  0
 12 59  1  0  0  0  0
 12 60  1  0  0  0  0
 13 14  1  0  0  0  0
 14 15  1  0  0  0  0
 14 61  1  0  0  0  0
 14 62  1  0  0  0  0
 15 63  1  0  0  0  0
 15 64  1  0  0  0  0
 16 17  1  0  0  0  0
 16 65  1  0  0  0  0
 17 18  1  0  0  0  0
 17 46  1  0  0  0  0
 18 19  2  0  0  0  0
 19 20  1  0  0  0  0
 19 66  1  0  0  0  0
 20 21  2  0  0  0  0
 21 22  1  0  0  0  0
 21 46  1  0  0  0  0
 22 23  1  0  0  0  0
 23 24  1  0  0  0  0
 23 44  2  0  0  0  0
 24 25  2  0  0  0  0
 24 67  1  0  0  0  0
 25 26  1  0  0  0  0
 25 68  1  0  0  0  0
 26 27  1  0  0  0  0
 26 43  2  0  0  0  0
 27 28  1  0  0  0  0
 27 69  1  0  0  0  0
 28 29  2  0  0  0  0
 28 30  1  0  0  0  0
 30 31  1  0  0  0  0
 30 41  1  0  0  0  0
 30 42  1  0  0  0  0
 31 32  2  0  0  0  0
 31 33  1  0  0  0  0
 33 34  1  0  0  0  0
 33 70  1  0  0  0  0
 34 35  1  0  0  0  0
 34 40  2  0  0  0  0
 35 36  2  0  0  0  0
 35 71  1  0  0  0  0
 36 37  1  0  0  0  0
 36 72  1  0  0  0  0
 37 38  1  0  0  0  0
 37 39  2  0  0  0  0
 39 40  1  0  0  0  0
 39 73  1  0  0  0  0
 40 74  1  0  0  0  0
 41 42  1  0  0  0  0
 41 75  1  0  0  0  0
 41 76  1  0  0  0  0
 42 77  1  0  0  0  0
 42 78  1  0  0  0  0
 43 44  1  0  0  0  0
 43 79  1  0  0  0  0
 44 45  1  0  0  0  0
M  END
$$$$
