CHEMBL3928393
 OpenBabel04072215373D

 56 60  0  0  0  0  0  0  0  0999 V2000
    1.1688   -0.3578   -0.1634 C   0  0  0  0  0  0  0  0  0  0  0  0
    2.0834    0.5914    0.3236 O   0  0  0  0  0  0  0  0  0  0  0  0
    2.9152    0.2056    1.3670 C   0  0  0  0  0  0  0  0  0  0  0  0
    2.6308   -0.9163    2.1308 C   0  0  0  0  0  0  0  0  0  0  0  0
    3.4665   -1.2476    3.2009 C   0  0  0  0  0  0  0  0  0  0  0  0
    3.2772   -2.3100    4.0291 O   0  0  0  0  0  0  0  0  0  0  0  0
    2.1384   -3.1029    3.7588 C   0  0  0  0  0  0  0  0  0  0  0  0
    4.6538   -0.5005    3.3891 C   0  0  0  0  0  0  0  0  0  0  0  0
    5.0358    0.5420    2.5690 C   0  0  0  0  0  0  0  0  0  0  0  0
    6.3412    1.1039    2.6913 N   0  0  0  0  0  0  0  0  0  0  0  0
    6.8305    1.8339    1.4307 C   0  0  0  0  0  0  0  0  0  0  0  0
    6.5700    3.3114    1.0967 C   0  0  0  0  0  0  0  0  0  0  0  0
    6.9178    3.8822   -0.0409 N   0  0  0  0  0  0  0  0  0  0  0  0
    6.7477    5.2462    0.1193 C   0  0  0  0  0  0  0  0  0  0  0  0
    6.2503    5.5068    1.3643 C   0  0  0  0  0  0  0  0  0  0  0  0
    6.0774    4.2748    1.9523 N   0  0  0  0  0  0  0  0  0  0  0  0
    7.3867    0.8877    3.6658 C   0  0  0  0  0  0  0  0  0  0  0  0
    7.9720    2.0802    4.0119 C   0  0  0  0  0  0  0  0  0  0  0  0
    9.1632    2.0912    4.6261 C   0  0  0  0  0  0  0  0  0  0  0  0
    9.8382    0.9343    4.9222 C   0  0  0  0  0  0  0  0  0  0  0  0
   11.0789    1.2591    4.7660 N   0  0  0  0  0  0  0  0  0  0  0  0
   11.8492    0.9804    5.7822 C   0  0  0  0  0  0  0  0  0  0  0  0
   11.6459   -0.0128    6.6958 C   0  0  0  0  0  0  0  0  0  0  0  0
   12.7485    0.2081    7.8308 C   0  0  0  0  0  0  0  0  0  0  0  0
   13.4505    1.4966    7.9877 C   0  0  0  0  0  0  0  0  0  0  0  0
   14.4735    1.5326    8.8242 N   0  0  0  0  0  0  0  0  0  0  0  0
   14.4946    0.3014    9.3277 N   0  0  0  0  0  0  0  0  0  0  0  0
   15.4633    0.0782   10.3887 C   0  0  0  0  0  0  0  0  0  0  0  0
   13.5600   -0.5524    8.6957 C   0  0  0  0  0  0  0  0  0  0  0  0
   10.4507   -0.7600    6.4256 N   0  0  0  0  0  0  0  0  0  0  0  0
    9.3398   -0.2516    5.3419 C   0  0  0  0  0  0  0  0  0  0  0  0
    7.9780   -0.2696    4.3952 C   0  0  0  0  0  0  0  0  0  0  0  0
    4.0764    0.9434    1.6250 C   0  0  0  0  0  0  0  0  0  0  0  0
    0.7587   -0.0194   -1.1195 H   0  0  0  0  0  0  0  0  0  0  0  0
    0.3328   -0.4541    0.5379 H   0  0  0  0  0  0  0  0  0  0  0  0
    1.6439   -1.3296   -0.3421 H   0  0  0  0  0  0  0  0  0  0  0  0
    1.7260   -1.4872    1.9616 H   0  0  0  0  0  0  0  0  0  0  0  0
    2.1181   -3.9290    4.4773 H   0  0  0  0  0  0  0  0  0  0  0  0
    2.1917   -3.5353    2.7533 H   0  0  0  0  0  0  0  0  0  0  0  0
    1.2200   -2.5197    3.8875 H   0  0  0  0  0  0  0  0  0  0  0  0
    5.2814   -0.8166    4.2229 H   0  0  0  0  0  0  0  0  0  0  0  0
    6.5164    1.2591    0.5509 H   0  0  0  0  0  0  0  0  0  0  0  0
    7.9244    1.7649    1.4059 H   0  0  0  0  0  0  0  0  0  0  0  0
    7.0182    5.9563   -0.6568 H   0  0  0  0  0  0  0  0  0  0  0  0
    6.0188    6.4338    1.8762 H   0  0  0  0  0  0  0  0  0  0  0  0
    5.7291    4.0879    2.8864 H   0  0  0  0  0  0  0  0  0  0  0  0
    7.6458    3.0502    3.6552 H   0  0  0  0  0  0  0  0  0  0  0  0
    9.7150    3.0242    4.7409 H   0  0  0  0  0  0  0  0  0  0  0  0
   12.5158    1.8086    5.8923 H   0  0  0  0  0  0  0  0  0  0  0  0
   13.2884    2.4394    7.4800 H   0  0  0  0  0  0  0  0  0  0  0  0
   16.0522    1.0004   10.5647 H   0  0  0  0  0  0  0  0  0  0  0  0
   16.1625   -0.7161   10.1270 H   0  0  0  0  0  0  0  0  0  0  0  0
   14.9181   -0.1372   11.3074 H   0  0  0  0  0  0  0  0  0  0  0  0
   13.6222   -1.6019    8.9423 H   0  0  0  0  0  0  0  0  0  0  0  0
    7.5239   -1.2536    4.2292 H   0  0  0  0  0  0  0  0  0  0  0  0
    4.1783    1.8857    1.0572 H   0  0  0  0  0  0  0  0  0  0  0  0
  1  2  1  0  0  0  0
  1 34  1  0  0  0  0
  1 35  1  0  0  0  0
  1 36  1  0  0  0  0
  2  3  1  0  0  0  0
  3  4  1  0  0  0  0
  3 33  2  0  0  0  0
  4  5  2  0  0  0  0
  4 37  1  0  0  0  0
  5  6  1  0  0  0  0
  5  8  1  0  0  0  0
  6  7  1  0  0  0  0
  7 38  1  0  0  0  0
  7 39  1  0  0  0  0
  7 40  1  0  0  0  0
  8  9  2  0  0  0  0
  8 41  1  0  0  0  0
  9 10  1  0  0  0  0
  9 33  1  0  0  0  0
 10 11  1  0  0  0  0
 10 17  1  0  0  0  0
 11 12  1  0  0  0  0
 11 42  1  0  0  0  0
 11 43  1  0  0  0  0
 12 13  2  0  0  0  0
 12 16  1  0  0  0  0
 13 14  1  0  0  0  0
 14 15  2  0  0  0  0
 14 44  1  0  0  0  0
 15 16  1  0  0  0  0
 15 45  1  0  0  0  0
 16 46  1  0  0  0  0
 17 18  1  0  0  0  0
 17 32  2  0  0  0  0
 18 19  2  0  0  0  0
 18 47  1  0  0  0  0
 19 20  1  0  0  0  0
 19 48  1  0  0  0  0
 20 21  1  0  0  0  0
 20 31  2  0  0  0  0
 21 22  2  0  0  0  0
 22 23  1  0  0  0  0
 22 49  1  0  0  0  0
 23 24  1  0  0  0  0
 23 30  2  0  0  0  0
 24 25  1  0  0  0  0
 24 29  2  0  0  0  0
 25 26  2  0  0  0  0
 25 50  1  0  0  0  0
 26 27  1  0  0  0  0
 27 28  1  0  0  0  0
 27 29  1  0  0  0  0
 28 51  1  0  0  0  0
 28 52  1  0  0  0  0
 28 53  1  0  0  0  0
 29 54  1  0  0  0  0
 30 31  1  0  0  0  0
 31 32  1  0  0  0  0
 32 55  1  0  0  0  0
 33 56  1  0  0  0  0
M  END
$$$$
