CHEMBL3657550
 OpenBabel04072215373D

 64 69  0  0  1  0  0  0  0  0999 V2000
    2.4182   -1.0164   -2.0370 C   0  0  0  0  0  0  0  0  0  0  0  0
    2.9271    0.0346   -1.1203 C   0  0  0  0  0  0  0  0  0  0  0  0
    4.2357    0.3205   -1.0820 N   0  0  0  0  0  0  0  0  0  0  0  0
    4.3529    1.2533   -0.1016 N   0  0  0  0  0  0  0  0  0  0  0  0
    5.5787    1.9148    0.1960 C   0  0  0  0  0  0  0  0  0  0  0  0
    6.6246    1.8287   -0.6993 C   0  0  0  0  0  0  0  0  0  0  0  0
    7.7368    2.5567   -0.3648 C   0  0  0  0  0  0  0  0  0  0  0  0
    7.8381    3.2828    0.7644 N   0  0  0  0  0  0  0  0  0  0  0  0
    6.7811    3.2914    1.5947 C   0  0  0  0  0  0  0  0  0  0  0  0
    6.9684    4.0038    2.7833 N   0  0  0  0  0  0  0  0  0  0  0  0
    6.4473    3.7319    4.0638 C   0  0  0  0  0  0  0  0  0  0  0  0
    5.1822    3.1983    4.3118 C   0  0  0  0  0  0  0  0  0  0  0  0
    4.7674    2.8355    5.6052 C   0  0  0  0  0  0  0  0  0  0  0  0
    5.6908    2.9532    6.6488 C   0  0  0  0  0  0  0  0  0  0  0  0
    6.9468    3.5172    6.4403 C   0  0  0  0  0  0  0  0  0  0  0  0
    7.2688    4.0108    5.1593 C   0  0  0  0  0  0  0  0  0  0  0  0
    7.7181    3.3803    7.6404 C   0  0  0  0  0  0  0  0  0  0  0  0
    9.1318    3.7394    7.7523 C   0  0  0  0  0  0  0  0  0  0  0  0
    9.7434    4.3001    6.8488 O   0  0  0  0  0  0  0  0  0  0  0  0
    9.8619    3.3983    9.0089 C   0  0  0  0  0  0  0  0  0  0  0  0
   10.6916    4.4792    9.6674 C   0  0  0  0  0  0  0  0  0  0  0  0
   11.3788    3.3315    8.9897 C   0  0  0  0  0  0  0  0  0  0  0  0
    6.8747    2.7910    8.5680 C   0  0  0  0  0  0  0  0  0  0  0  0
    5.6429    2.5951    7.9762 N   0  0  0  0  0  0  0  0  0  0  0  0
    4.4948    2.0339    8.6486 C   0  0  0  0  0  0  0  0  0  0  0  0
    5.6382    2.6505    1.3313 N   0  0  0  0  0  0  0  0  0  0  0  0
    3.1402    1.5104    0.4980 C   0  0  0  0  0  0  0  0  0  0  0  0
    2.1739    0.8599   -0.2421 C   0  0  0  0  0  0  0  0  0  0  0  0
    0.6927    1.0544   -0.1793 C   0  0  0  0  0  0  0  0  0  0  0  0
    0.0104   -0.0900    0.4295 N   0  0  0  0  0  0  0  0  0  0  0  0
    0.2099   -0.1512    1.8890 C   0  0  0  0  0  0  0  0  0  0  0  0
   -1.0853    0.2640    2.5844 C   0  0  0  0  0  0  0  0  0  0  0  0
   -2.0292    0.6712    1.4727 C   0  0  1  0  0  0  0  0  0  0  0  0
   -2.0431    2.0950    1.3828 O   0  0  0  0  0  0  0  0  0  0  0  0
   -1.4510   -0.0095    0.2329 C   0  0  0  0  0  0  0  0  0  0  0  0
    3.2365   -1.6021   -2.4696 H   0  0  0  0  0  0  0  0  0  0  0  0
    1.8408   -0.5742   -2.8534 H   0  0  0  0  0  0  0  0  0  0  0  0
    1.7724   -1.7121   -1.4904 H   0  0  0  0  0  0  0  0  0  0  0  0
    6.5680    1.2739   -1.6263 H   0  0  0  0  0  0  0  0  0  0  0  0
    8.6064    2.5879   -1.0160 H   0  0  0  0  0  0  0  0  0  0  0  0
    7.9563    4.2377    2.7982 H   0  0  0  0  0  0  0  0  0  0  0  0
    4.4933    3.0340    3.4891 H   0  0  0  0  0  0  0  0  0  0  0  0
    3.7769    2.4135    5.7604 H   0  0  0  0  0  0  0  0  0  0  0  0
    8.2256    4.5041    5.0097 H   0  0  0  0  0  0  0  0  0  0  0  0
    9.3826    2.6761    9.6597 H   0  0  0  0  0  0  0  0  0  0  0  0
   10.7100    4.5222   10.7473 H   0  0  0  0  0  0  0  0  0  0  0  0
   10.7397    5.4484    9.1790 H   0  0  0  0  0  0  0  0  0  0  0  0
   11.8719    2.5940    9.6109 H   0  0  0  0  0  0  0  0  0  0  0  0
   11.8921    3.5253    8.0520 H   0  0  0  0  0  0  0  0  0  0  0  0
    7.0458    2.4751    9.5884 H   0  0  0  0  0  0  0  0  0  0  0  0
    4.8025    1.6222    9.6127 H   0  0  0  0  0  0  0  0  0  0  0  0
    4.0772    1.2302    8.0333 H   0  0  0  0  0  0  0  0  0  0  0  0
    3.7586    2.8288    8.7989 H   0  0  0  0  0  0  0  0  0  0  0  0
    3.0697    2.2160    1.3135 H   0  0  0  0  0  0  0  0  0  0  0  0
    0.3546    1.1686   -1.2186 H   0  0  0  0  0  0  0  0  0  0  0  0
    0.4563    1.9970    0.3290 H   0  0  0  0  0  0  0  0  0  0  0  0
    1.0445    0.4616    2.2460 H   0  0  0  0  0  0  0  0  0  0  0  0
    0.4492   -1.1854    2.1618 H   0  0  0  0  0  0  0  0  0  0  0  0
   -0.9094    1.0772    3.2969 H   0  0  0  0  0  0  0  0  0  0  0  0
   -1.4935   -0.5937    3.1311 H   0  0  0  0  0  0  0  0  0  0  0  0
   -3.0547    0.3422    1.6713 H   0  0  0  0  0  0  0  0  0  0  0  0
   -1.9002    2.3563    0.4593 H   0  0  0  0  0  0  0  0  0  0  0  0
   -1.7328    0.4978   -0.6972 H   0  0  0  0  0  0  0  0  0  0  0  0
   -1.8341   -1.0351    0.1721 H   0  0  0  0  0  0  0  0  0  0  0  0
  1  2  1  0  0  0  0
  1 36  1  0  0  0  0
  1 37  1  0  0  0  0
  1 38  1  0  0  0  0
  2  3  2  0  0  0  0
  2 28  1  0  0  0  0
  3  4  1  0  0  0  0
  4  5  1  0  0  0  0
  4 27  1  0  0  0  0
  5  6  1  0  0  0  0
  5 26  2  0  0  0  0
  6  7  2  0  0  0  0
  6 39  1  0  0  0  0
  7  8  1  0  0  0  0
  7 40  1  0  0  0  0
  8  9  2  0  0  0  0
  9 10  1  0  0  0  0
  9 26  1  0  0  0  0
 10 11  1  0  0  0  0
 10 41  1  0  0  0  0
 11 12  1  0  0  0  0
 11 16  2  0  0  0  0
 12 13  2  0  0  0  0
 12 42  1  0  0  0  0
 13 14  1  0  0  0  0
 13 43  1  0  0  0  0
 14 15  2  0  0  0  0
 14 24  1  0  0  0  0
 15 16  1  0  0  0  0
 15 17  1  0  0  0  0
 16 44  1  0  0  0  0
 17 18  1  0  0  0  0
 17 23  2  0  0  0  0
 18 19  2  0  0  0  0
 18 20  1  0  0  0  0
 20 21  1  0  0  0  0
 20 22  1  0  0  0  0
 20 45  1  0  0  0  0
 21 22  1  0  0  0  0
 21 46  1  0  0  0  0
 21 47  1  0  0  0  0
 22 48  1  0  0  0  0
 22 49  1  0  0  0  0
 23 24  1  0  0  0  0
 23 50  1  0  0  0  0
 24 25  1  0  0  0  0
 25 51  1  0  0  0  0
 25 52  1  0  0  0  0
 25 53  1  0  0  0  0
 27 28  2  0  0  0  0
 27 54  1  0  0  0  0
 28 29  1  0  0  0  0
 29 30  1  0  0  0  0
 29 55  1  0  0  0  0
 29 56  1  0  0  0  0
 30 31  1  0  0  0  0
 30 35  1  0  0  0  0
 31 32  1  0  0  0  0
 31 57  1  0  0  0  0
 31 58  1  0  0  0  0
 32 33  1  0  0  0  0
 32 59  1  0  0  0  0
 32 60  1  0  0  0  0
 33 34  1  0  0  0  0
 33 35  1  0  0  0  0
 33 61  1  1  0  0  0
 34 62  1  0  0  0  0
 35 63  1  0  0  0  0
 35 64  1  0  0  0  0
M  END
$$$$
