CHEMBL2349012
 OpenBabel04072215363D

 53 57  0  0  0  0  0  0  0  0999 V2000
    2.4826   -1.1291    0.3421 C   0  0  0  0  0  0  0  0  0  0  0  0
    1.2012   -0.5910   -0.0710 N   0  0  0  0  0  0  0  0  0  0  0  0
    1.1582    0.7075   -0.4336 N   0  0  0  0  0  0  0  0  0  0  0  0
   -0.1290    0.9403   -0.7278 C   0  0  0  0  0  0  0  0  0  0  0  0
   -0.6537    2.2763   -1.1805 C   0  0  0  0  0  0  0  0  0  0  0  0
    0.2971    3.2390   -1.2922 F   0  0  0  0  0  0  0  0  0  0  0  0
   -1.2607    2.1796   -2.3961 F   0  0  0  0  0  0  0  0  0  0  0  0
   -1.5986    2.7521   -0.3235 F   0  0  0  0  0  0  0  0  0  0  0  0
   -0.8978   -0.2357   -0.5508 C   0  0  0  0  0  0  0  0  0  0  0  0
   -0.0227   -1.2299   -0.1413 C   0  0  0  0  0  0  0  0  0  0  0  0
   -0.2572   -2.6310    0.1774 C   0  0  0  0  0  0  0  0  0  0  0  0
    0.6535   -3.3354    0.6034 O   0  0  0  0  0  0  0  0  0  0  0  0
   -1.5548   -3.0864   -0.0760 N   0  0  0  0  0  0  0  0  0  0  0  0
   -2.0491   -4.3993    0.1513 C   0  0  0  0  0  0  0  0  0  0  0  0
   -1.3667   -5.3203    0.9516 C   0  0  0  0  0  0  0  0  0  0  0  0
   -1.8166   -6.6335    1.0836 C   0  0  0  0  0  0  0  0  0  0  0  0
   -2.9696   -7.0470    0.4298 C   0  0  0  0  0  0  0  0  0  0  0  0
   -3.7114   -6.1226   -0.3062 C   0  0  0  0  0  0  0  0  0  0  0  0
   -4.8554   -6.5416   -1.0327 O   0  0  0  0  0  0  0  0  0  0  0  0
   -5.7275   -7.4972   -0.5045 C   0  0  0  0  0  0  0  0  0  0  0  0
   -6.4821   -8.1277   -1.6159 C   0  0  0  0  0  0  0  0  0  0  0  0
   -7.3717   -9.0729   -1.2775 C   0  0  0  0  0  0  0  0  0  0  0  0
   -7.5433   -9.4055    0.0846 C   0  0  0  0  0  0  0  0  0  0  0  0
   -8.3363  -10.2701    0.6767 N   0  0  0  0  0  0  0  0  0  0  0  0
   -8.0480  -10.1857    2.0074 C   0  0  0  0  0  0  0  0  0  0  0  0
   -8.6510  -10.9482    2.9820 N   0  0  0  0  0  0  0  0  0  0  0  0
   -9.6432  -11.8702    2.7425 C   0  0  0  0  0  0  0  0  0  0  0  0
  -10.1738  -12.1446    1.6733 O   0  0  0  0  0  0  0  0  0  0  0  0
  -10.0543  -12.6189    3.9757 C   0  0  0  0  0  0  0  0  0  0  0  0
   -9.8342  -14.1152    4.0189 C   0  0  0  0  0  0  0  0  0  0  0  0
  -11.2311  -13.5714    3.9646 C   0  0  0  0  0  0  0  0  0  0  0  0
   -7.0607   -9.2549    2.2365 C   0  0  0  0  0  0  0  0  0  0  0  0
   -6.7521   -8.7398    1.0051 N   0  0  0  0  0  0  0  0  0  0  0  0
   -5.8295   -7.7673    0.7585 N   0  0  0  0  0  0  0  0  0  0  0  0
   -3.2573   -4.8007   -0.4544 C   0  0  0  0  0  0  0  0  0  0  0  0
    3.2546   -0.3663    0.1915 H   0  0  0  0  0  0  0  0  0  0  0  0
    2.7210   -2.0002   -0.2704 H   0  0  0  0  0  0  0  0  0  0  0  0
    2.4296   -1.3801    1.4037 H   0  0  0  0  0  0  0  0  0  0  0  0
   -1.9638   -0.3201   -0.7064 H   0  0  0  0  0  0  0  0  0  0  0  0
   -2.1775   -2.4637   -0.5670 H   0  0  0  0  0  0  0  0  0  0  0  0
   -0.4692   -5.0459    1.4971 H   0  0  0  0  0  0  0  0  0  0  0  0
   -1.2517   -7.3382    1.6877 H   0  0  0  0  0  0  0  0  0  0  0  0
   -3.2739   -8.0856    0.5052 H   0  0  0  0  0  0  0  0  0  0  0  0
   -6.2830   -7.8449   -2.6404 H   0  0  0  0  0  0  0  0  0  0  0  0
   -7.9606   -9.6065   -2.0163 H   0  0  0  0  0  0  0  0  0  0  0  0
   -8.3161  -10.8207    3.9254 H   0  0  0  0  0  0  0  0  0  0  0  0
   -9.9146  -12.0777    4.9079 H   0  0  0  0  0  0  0  0  0  0  0  0
   -9.4909  -14.5549    4.9468 H   0  0  0  0  0  0  0  0  0  0  0  0
   -9.4611  -14.6069    3.1259 H   0  0  0  0  0  0  0  0  0  0  0  0
  -11.8390  -13.6528    4.8582 H   0  0  0  0  0  0  0  0  0  0  0  0
  -11.7886  -13.6972    3.0417 H   0  0  0  0  0  0  0  0  0  0  0  0
   -6.5564   -8.9109    3.1256 H   0  0  0  0  0  0  0  0  0  0  0  0
   -3.8308   -4.1137   -1.0702 H   0  0  0  0  0  0  0  0  0  0  0  0
  1  2  1  0  0  0  0
  1 36  1  0  0  0  0
  1 37  1  0  0  0  0
  1 38  1  0  0  0  0
  2  3  1  0  0  0  0
  2 10  1  0  0  0  0
  3  4  2  0  0  0  0
  4  5  1  0  0  0  0
  4  9  1  0  0  0  0
  5  6  1  0  0  0  0
  5  7  1  0  0  0  0
  5  8  1  0  0  0  0
  9 10  2  0  0  0  0
  9 39  1  0  0  0  0
 10 11  1  0  0  0  0
 11 12  2  0  0  0  0
 11 13  1  0  0  0  0
 13 14  1  0  0  0  0
 13 40  1  0  0  0  0
 14 15  1  0  0  0  0
 14 35  2  0  0  0  0
 15 16  2  0  0  0  0
 15 41  1  0  0  0  0
 16 17  1  0  0  0  0
 16 42  1  0  0  0  0
 17 18  2  0  0  0  0
 17 43  1  0  0  0  0
 18 19  1  0  0  0  0
 18 35  1  0  0  0  0
 19 20  1  0  0  0  0
 20 21  1  0  0  0  0
 20 34  2  0  0  0  0
 21 22  2  0  0  0  0
 21 44  1  0  0  0  0
 22 23  1  0  0  0  0
 22 45  1  0  0  0  0
 23 24  2  0  0  0  0
 23 33  1  0  0  0  0
 24 25  1  0  0  0  0
 25 26  1  0  0  0  0
 25 32  2  0  0  0  0
 26 27  1  0  0  0  0
 26 46  1  0  0  0  0
 27 28  2  0  0  0  0
 27 29  1  0  0  0  0
 29 30  1  0  0  0  0
 29 31  1  0  0  0  0
 29 47  1  0  0  0  0
 30 31  1  0  0  0  0
 30 48  1  0  0  0  0
 30 49  1  0  0  0  0
 31 50  1  0  0  0  0
 31 51  1  0  0  0  0
 32 33  1  0  0  0  0
 32 52  1  0  0  0  0
 33 34  1  0  0  0  0
 35 53  1  0  0  0  0
M  END
$$$$
