CHEMBL3969665
 OpenBabel04072215373D

 65 69  0  0  0  0  0  0  0  0999 V2000
    0.7182   -3.3078    2.8064 C   0  0  0  0  0  0  0  0  0  0  0  0
    2.1071   -3.2766    3.1430 O   0  0  0  0  0  0  0  0  0  0  0  0
    2.9538   -2.6263    2.2741 C   0  0  0  0  0  0  0  0  0  0  0  0
    2.5676   -2.1072    1.0394 C   0  0  0  0  0  0  0  0  0  0  0  0
    3.4938   -1.4135    0.2619 C   0  0  0  0  0  0  0  0  0  0  0  0
    3.2372   -0.8326   -0.9526 O   0  0  0  0  0  0  0  0  0  0  0  0
    1.9391   -1.0237   -1.5038 C   0  0  0  0  0  0  0  0  0  0  0  0
    4.8061   -1.2318    0.7279 C   0  0  0  0  0  0  0  0  0  0  0  0
    5.2322   -1.7305    1.9669 C   0  0  0  0  0  0  0  0  0  0  0  0
    6.4799   -1.3898    2.5522 N   0  0  0  0  0  0  0  0  0  0  0  0
    6.9847    0.0151    2.2983 C   0  0  0  0  0  0  0  0  0  0  0  0
    6.0487    1.2207    2.5303 C   0  0  0  0  0  0  0  0  0  0  0  0
    5.7705    1.6521    3.9767 C   0  0  0  0  0  0  0  0  0  0  0  0
    4.9896    2.8984    4.0269 N   0  0  0  0  0  0  0  0  0  0  0  0
    5.4896    4.1671    4.1179 C   0  0  0  0  0  0  0  0  0  0  0  0
    4.4036    4.9977    4.0958 C   0  0  0  0  0  0  0  0  0  0  0  0
    3.2431    4.2676    4.0091 N   0  0  0  0  0  0  0  0  0  0  0  0
    3.6152    3.0054    3.9804 C   0  0  0  0  0  0  0  0  0  0  0  0
    2.6942    1.8405    3.9108 C   0  0  0  0  0  0  0  0  0  0  0  0
    7.6588   -2.2361    2.6632 C   0  0  0  0  0  0  0  0  0  0  0  0
    8.4483   -1.9829    3.7861 C   0  0  0  0  0  0  0  0  0  0  0  0
    9.7908   -2.3141    3.7867 C   0  0  0  0  0  0  0  0  0  0  0  0
   10.3592   -3.0232    2.7645 C   0  0  0  0  0  0  0  0  0  0  0  0
   11.6942   -3.1057    2.8290 N   0  0  0  0  0  0  0  0  0  0  0  0
   12.2893   -3.9561    1.9849 C   0  0  0  0  0  0  0  0  0  0  0  0
   11.5582   -4.7788    1.1505 C   0  0  0  0  0  0  0  0  0  0  0  0
   12.2013   -6.0457    0.8093 C   0  0  0  0  0  0  0  0  0  0  0  0
   12.7020   -6.6186   -0.3806 C   0  0  0  0  0  0  0  0  0  0  0  0
   13.3021   -7.8029   -0.1760 N   0  0  0  0  0  0  0  0  0  0  0  0
   13.1652   -8.0026    1.1470 N   0  0  0  0  0  0  0  0  0  0  0  0
   13.4041   -9.3006    1.7363 C   0  0  0  0  0  0  0  0  0  0  0  0
   12.6634   -6.9116    1.7927 C   0  0  0  0  0  0  0  0  0  0  0  0
   10.2030   -4.5814    0.9671 N   0  0  0  0  0  0  0  0  0  0  0  0
    9.5659   -3.6276    1.7624 C   0  0  0  0  0  0  0  0  0  0  0  0
    8.1960   -3.1398    1.7005 C   0  0  0  0  0  0  0  0  0  0  0  0
    4.2825   -2.4603    2.7152 C   0  0  0  0  0  0  0  0  0  0  0  0
    0.1690   -3.7325    3.6532 H   0  0  0  0  0  0  0  0  0  0  0  0
    0.5391   -3.9528    1.9390 H   0  0  0  0  0  0  0  0  0  0  0  0
    0.3165   -2.3021    2.6338 H   0  0  0  0  0  0  0  0  0  0  0  0
    1.5519   -2.2325    0.6883 H   0  0  0  0  0  0  0  0  0  0  0  0
    1.9237   -0.5554   -2.4926 H   0  0  0  0  0  0  0  0  0  0  0  0
    1.1738   -0.5344   -0.8915 H   0  0  0  0  0  0  0  0  0  0  0  0
    1.7171   -2.0877   -1.6375 H   0  0  0  0  0  0  0  0  0  0  0  0
    5.4868   -0.6581    0.1053 H   0  0  0  0  0  0  0  0  0  0  0  0
    7.3411    0.0589    1.2605 H   0  0  0  0  0  0  0  0  0  0  0  0
    7.8686    0.2240    2.9151 H   0  0  0  0  0  0  0  0  0  0  0  0
    5.1083    1.1152    1.9873 H   0  0  0  0  0  0  0  0  0  0  0  0
    6.5608    2.0735    2.0604 H   0  0  0  0  0  0  0  0  0  0  0  0
    6.7037    1.8512    4.5217 H   0  0  0  0  0  0  0  0  0  0  0  0
    5.2194    0.8884    4.5362 H   0  0  0  0  0  0  0  0  0  0  0  0
    6.5482    4.3757    4.1863 H   0  0  0  0  0  0  0  0  0  0  0  0
    4.3701    6.0780    4.1320 H   0  0  0  0  0  0  0  0  0  0  0  0
    1.6541    2.1809    3.8860 H   0  0  0  0  0  0  0  0  0  0  0  0
    2.8184    1.2004    4.7891 H   0  0  0  0  0  0  0  0  0  0  0  0
    2.8783    1.2506    3.0087 H   0  0  0  0  0  0  0  0  0  0  0  0
    8.0474   -1.4051    4.6143 H   0  0  0  0  0  0  0  0  0  0  0  0
   10.4193   -1.9702    4.6041 H   0  0  0  0  0  0  0  0  0  0  0  0
   13.3659   -4.0482    2.0933 H   0  0  0  0  0  0  0  0  0  0  0  0
   12.6799   -6.2291   -1.3896 H   0  0  0  0  0  0  0  0  0  0  0  0
   13.2614  -10.0728    0.9762 H   0  0  0  0  0  0  0  0  0  0  0  0
   12.6730   -9.4515    2.5373 H   0  0  0  0  0  0  0  0  0  0  0  0
   14.4175   -9.3384    2.1420 H   0  0  0  0  0  0  0  0  0  0  0  0
   12.6214   -6.8695    2.8732 H   0  0  0  0  0  0  0  0  0  0  0  0
    7.5861   -3.4496    0.8534 H   0  0  0  0  0  0  0  0  0  0  0  0
    4.5569   -2.8506    3.6930 H   0  0  0  0  0  0  0  0  0  0  0  0
  1  2  1  0  0  0  0
  1 37  1  0  0  0  0
  1 38  1  0  0  0  0
  1 39  1  0  0  0  0
  2  3  1  0  0  0  0
  3  4  1  0  0  0  0
  3 36  2  0  0  0  0
  4  5  2  0  0  0  0
  4 40  1  0  0  0  0
  5  6  1  0  0  0  0
  5  8  1  0  0  0  0
  6  7  1  0  0  0  0
  7 41  1  0  0  0  0
  7 42  1  0  0  0  0
  7 43  1  0  0  0  0
  8  9  2  0  0  0  0
  8 44  1  0  0  0  0
  9 10  1  0  0  0  0
  9 36  1  0  0  0  0
 10 11  1  0  0  0  0
 10 20  1  0  0  0  0
 11 12  1  0  0  0  0
 11 45  1  0  0  0  0
 11 46  1  0  0  0  0
 12 13  1  0  0  0  0
 12 47  1  0  0  0  0
 12 48  1  0  0  0  0
 13 14  1  0  0  0  0
 13 49  1  0  0  0  0
 13 50  1  0  0  0  0
 14 15  1  0  0  0  0
 14 18  1  0  0  0  0
 15 16  2  0  0  0  0
 15 51  1  0  0  0  0
 16 17  1  0  0  0  0
 16 52  1  0  0  0  0
 17 18  2  0  0  0  0
 18 19  1  0  0  0  0
 19 53  1  0  0  0  0
 19 54  1  0  0  0  0
 19 55  1  0  0  0  0
 20 21  1  0  0  0  0
 20 35  2  0  0  0  0
 21 22  2  0  0  0  0
 21 56  1  0  0  0  0
 22 23  1  0  0  0  0
 22 57  1  0  0  0  0
 23 24  1  0  0  0  0
 23 34  2  0  0  0  0
 24 25  2  0  0  0  0
 25 26  1  0  0  0  0
 25 58  1  0  0  0  0
 26 27  1  0  0  0  0
 26 33  2  0  0  0  0
 27 28  1  0  0  0  0
 27 32  2  0  0  0  0
 28 29  2  0  0  0  0
 28 59  1  0  0  0  0
 29 30  1  0  0  0  0
 30 31  1  0  0  0  0
 30 32  1  0  0  0  0
 31 60  1  0  0  0  0
 31 61  1  0  0  0  0
 31 62  1  0  0  0  0
 32 63  1  0  0  0  0
 33 34  1  0  0  0  0
 34 35  1  0  0  0  0
 35 64  1  0  0  0  0
 36 65  1  0  0  0  0
M  END
$$$$
