CHEMBL249806
 OpenBabel04072215363D

 54 58  0  0  0  0  0  0  0  0999 V2000
    0.9598    0.0057   -0.6346 O   0  0  0  0  0  0  0  0  0  0  0  0
    2.1207   -0.0151   -0.2333 C   0  0  0  0  0  0  0  0  0  0  0  0
    2.6241    0.7357    0.8203 N   0  0  0  0  0  0  0  0  0  0  0  0
    1.8752    1.6580    1.5992 C   0  0  0  0  0  0  0  0  0  0  0  0
    0.5421    1.9928    1.3397 C   0  0  0  0  0  0  0  0  0  0  0  0
   -0.1391    2.9321    2.1215 C   0  0  0  0  0  0  0  0  0  0  0  0
    0.4745    3.5020    3.2288 C   0  0  0  0  0  0  0  0  0  0  0  0
   -0.1223    4.4178    4.0679 O   0  0  0  0  0  0  0  0  0  0  0  0
   -1.4796    4.3509    4.3238 C   0  0  0  0  0  0  0  0  0  0  0  0
   -2.2168    3.1651    4.3675 C   0  0  0  0  0  0  0  0  0  0  0  0
   -3.5885    3.1989    4.6242 C   0  0  0  0  0  0  0  0  0  0  0  0
   -4.2199    4.4107    4.8991 C   0  0  0  0  0  0  0  0  0  0  0  0
   -3.4796    5.5904    4.9162 C   0  0  0  0  0  0  0  0  0  0  0  0
   -2.1088    5.5616    4.6262 C   0  0  0  0  0  0  0  0  0  0  0  0
    1.8127    3.1940    3.4909 C   0  0  0  0  0  0  0  0  0  0  0  0
    2.5118    2.2833    2.6780 C   0  0  0  0  0  0  0  0  0  0  0  0
    3.0440   -0.9122   -0.9718 C   0  0  0  0  0  0  0  0  0  0  0  0
    2.7615   -1.0638   -2.3473 C   0  0  0  0  0  0  0  0  0  0  0  0
    3.4629   -1.9719   -3.1165 C   0  0  0  0  0  0  0  0  0  0  0  0
    4.4355   -2.7155   -2.4878 C   0  0  0  0  0  0  0  0  0  0  0  0
    4.7273   -2.5989   -1.1727 N   0  0  0  0  0  0  0  0  0  0  0  0
    4.0238   -1.7316   -0.3981 C   0  0  0  0  0  0  0  0  0  0  0  0
    4.3965   -1.6484    0.9563 N   0  0  0  0  0  0  0  0  0  0  0  0
    4.8262   -2.9470    1.5035 C   0  0  0  0  0  0  0  0  0  0  0  0
    5.7548   -2.7106    2.6696 C   0  0  0  0  0  0  0  0  0  0  0  0
    7.0278   -2.1386    2.4298 C   0  0  0  0  0  0  0  0  0  0  0  0
    7.9017   -1.8564    3.4809 C   0  0  0  0  0  0  0  0  0  0  0  0
    7.4773   -2.1533    4.7563 C   0  0  0  0  0  0  0  0  0  0  0  0
    6.2565   -2.7403    4.9976 C   0  0  0  0  0  0  0  0  0  0  0  0
    5.3782   -3.0455    3.9790 C   0  0  0  0  0  0  0  0  0  0  0  0
    6.0352   -2.9457    6.3242 O   0  0  0  0  0  0  0  0  0  0  0  0
    7.2074   -2.3228    6.8905 C   0  0  0  0  0  0  0  0  0  0  0  0
    8.1686   -1.9039    5.9002 O   0  0  0  0  0  0  0  0  0  0  0  0
    3.6155    0.6677    1.0149 H   0  0  0  0  0  0  0  0  0  0  0  0
   -0.0152    1.5562    0.5190 H   0  0  0  0  0  0  0  0  0  0  0  0
   -1.1626    3.1863    1.8485 H   0  0  0  0  0  0  0  0  0  0  0  0
   -1.7424    2.2044    4.1905 H   0  0  0  0  0  0  0  0  0  0  0  0
   -4.1621    2.2751    4.6124 H   0  0  0  0  0  0  0  0  0  0  0  0
   -5.2861    4.4315    5.1089 H   0  0  0  0  0  0  0  0  0  0  0  0
   -3.9642    6.5328    5.1535 H   0  0  0  0  0  0  0  0  0  0  0  0
   -1.5392    6.4851    4.6392 H   0  0  0  0  0  0  0  0  0  0  0  0
    2.3157    3.6611    4.3329 H   0  0  0  0  0  0  0  0  0  0  0  0
    3.5491    2.0667    2.9170 H   0  0  0  0  0  0  0  0  0  0  0  0
    1.9728   -0.4699   -2.8057 H   0  0  0  0  0  0  0  0  0  0  0  0
    3.2403   -2.1087   -4.1675 H   0  0  0  0  0  0  0  0  0  0  0  0
    5.0191   -3.4524   -3.0300 H   0  0  0  0  0  0  0  0  0  0  0  0
    3.6495   -1.2881    1.5361 H   0  0  0  0  0  0  0  0  0  0  0  0
    5.3544   -3.6018    0.8004 H   0  0  0  0  0  0  0  0  0  0  0  0
    3.9318   -3.4913    1.8323 H   0  0  0  0  0  0  0  0  0  0  0  0
    7.3217   -1.9012    1.4077 H   0  0  0  0  0  0  0  0  0  0  0  0
    8.8688   -1.4025    3.3004 H   0  0  0  0  0  0  0  0  0  0  0  0
    4.4247   -3.5129    4.2003 H   0  0  0  0  0  0  0  0  0  0  0  0
    7.6910   -3.0297    7.5726 H   0  0  0  0  0  0  0  0  0  0  0  0
    6.8897   -1.4423    7.4627 H   0  0  0  0  0  0  0  0  0  0  0  0
  1  2  2  0  0  0  0
  2  3  1  0  0  0  0
  2 17  1  0  0  0  0
  3  4  1  0  0  0  0
  3 34  1  0  0  0  0
  4  5  1  0  0  0  0
  4 16  2  0  0  0  0
  5  6  2  0  0  0  0
  5 35  1  0  0  0  0
  6  7  1  0  0  0  0
  6 36  1  0  0  0  0
  7  8  1  0  0  0  0
  7 15  2  0  0  0  0
  8  9  1  0  0  0  0
  9 10  1  0  0  0  0
  9 14  2  0  0  0  0
 10 11  2  0  0  0  0
 10 37  1  0  0  0  0
 11 12  1  0  0  0  0
 11 38  1  0  0  0  0
 12 13  2  0  0  0  0
 12 39  1  0  0  0  0
 13 14  1  0  0  0  0
 13 40  1  0  0  0  0
 14 41  1  0  0  0  0
 15 16  1  0  0  0  0
 15 42  1  0  0  0  0
 16 43  1  0  0  0  0
 17 18  1  0  0  0  0
 17 22  2  0  0  0  0
 18 19  2  0  0  0  0
 18 44  1  0  0  0  0
 19 20  1  0  0  0  0
 19 45  1  0  0  0  0
 20 21  2  0  0  0  0
 20 46  1  0  0  0  0
 21 22  1  0  0  0  0
 22 23  1  0  0  0  0
 23 24  1  0  0  0  0
 23 47  1  0  0  0  0
 24 25  1  0  0  0  0
 24 48  1  0  0  0  0
 24 49  1  0  0  0  0
 25 26  1  0  0  0  0
 25 30  2  0  0  0  0
 26 27  2  0  0  0  0
 26 50  1  0  0  0  0
 27 28  1  0  0  0  0
 27 51  1  0  0  0  0
 28 29  2  0  0  0  0
 28 33  1  0  0  0  0
 29 30  1  0  0  0  0
 29 31  1  0  0  0  0
 30 52  1  0  0  0  0
 31 32  1  0  0  0  0
 32 33  1  0  0  0  0
 32 53  1  0  0  0  0
 32 54  1  0  0  0  0
M  END
$$$$
