CHEMBL3939020
 OpenBabel04072215373D

 67 71  0  0  0  0  0  0  0  0999 V2000
    2.7665   -1.0819   -0.1712 O   0  0  0  0  0  0  0  0  0  0  0  0
    2.3275    0.0576   -0.0885 C   0  0  0  0  0  0  0  0  0  0  0  0
    0.9741    0.3652   -0.0417 N   0  0  0  0  0  0  0  0  0  0  0  0
   -0.0821   -0.5812   -0.0891 C   0  0  0  0  0  0  0  0  0  0  0  0
    0.1119   -1.9567    0.0937 C   0  0  0  0  0  0  0  0  0  0  0  0
   -0.9201   -2.9016   -0.0106 C   0  0  0  0  0  0  0  0  0  0  0  0
   -0.6811   -4.2482    0.1953 N   0  0  0  0  0  0  0  0  0  0  0  0
    0.3006   -4.6931    1.1973 C   0  0  0  0  0  0  0  0  0  0  0  0
    1.4686   -5.3734    0.5197 C   0  0  0  0  0  0  0  0  0  0  0  0
    0.8634   -6.7749   -0.3859 S   0  0  0  0  0  0  0  0  0  0  0  0
    1.9272   -7.2387   -1.2572 O   0  0  0  0  0  0  0  0  0  0  0  0
    0.2380   -7.6930    0.5475 O   0  0  0  0  0  0  0  0  0  0  0  0
   -0.4032   -6.0683   -1.4066 C   0  0  0  0  0  0  0  0  0  0  0  0
   -1.3861   -5.2971   -0.5485 C   0  0  0  0  0  0  0  0  0  0  0  0
   -2.1922   -2.4085   -0.3073 C   0  0  0  0  0  0  0  0  0  0  0  0
   -2.4407   -1.0309   -0.4446 C   0  0  0  0  0  0  0  0  0  0  0  0
   -3.8430   -0.5315   -0.6790 C   0  0  0  0  0  0  0  0  0  0  0  0
   -4.7741   -1.5232   -0.7498 F   0  0  0  0  0  0  0  0  0  0  0  0
   -4.2629    0.3042    0.3108 F   0  0  0  0  0  0  0  0  0  0  0  0
   -3.9590    0.1734   -1.8377 F   0  0  0  0  0  0  0  0  0  0  0  0
   -1.3752   -0.1218   -0.3326 C   0  0  0  0  0  0  0  0  0  0  0  0
    3.1232    1.1935   -0.0596 N   0  0  0  0  0  0  0  0  0  0  0  0
    4.5322    1.2200   -0.2145 C   0  0  0  0  0  0  0  0  0  0  0  0
    5.3008    0.0830   -0.4866 C   0  0  0  0  0  0  0  0  0  0  0  0
    6.6866    0.1584   -0.6465 C   0  0  0  0  0  0  0  0  0  0  0  0
    7.3459    1.3745   -0.4847 C   0  0  0  0  0  0  0  0  0  0  0  0
    8.7178    1.5119   -0.5972 O   0  0  0  0  0  0  0  0  0  0  0  0
    9.5312    0.5018   -0.1185 C   0  0  0  0  0  0  0  0  0  0  0  0
    9.2158   -0.2697    0.9966 C   0  0  0  0  0  0  0  0  0  0  0  0
   10.0866   -1.2742    1.3491 C   0  0  0  0  0  0  0  0  0  0  0  0
   11.2418   -1.5078    0.7047 N   0  0  0  0  0  0  0  0  0  0  0  0
   11.5857   -0.7269   -0.3328 C   0  0  0  0  0  0  0  0  0  0  0  0
   12.8116   -0.9542   -0.9859 N   0  0  0  0  0  0  0  0  0  0  0  0
   13.7018   -1.9438   -0.6142 C   0  0  0  0  0  0  0  0  0  0  0  0
   13.5895   -2.7334    0.3169 O   0  0  0  0  0  0  0  0  0  0  0  0
   14.9491   -2.0786   -1.4258 C   0  0  0  0  0  0  0  0  0  0  0  0
   15.9285   -0.9335   -1.5166 C   0  0  0  0  0  0  0  0  0  0  0  0
   15.2340   -1.4307   -2.7530 C   0  0  0  0  0  0  0  0  0  0  0  0
   10.7503    0.2952   -0.7777 C   0  0  0  0  0  0  0  0  0  0  0  0
    6.5819    2.5169   -0.2515 C   0  0  0  0  0  0  0  0  0  0  0  0
    7.1793    3.7159   -0.1465 F   0  0  0  0  0  0  0  0  0  0  0  0
    5.1898    2.4511   -0.1117 C   0  0  0  0  0  0  0  0  0  0  0  0
    0.7178    1.3334   -0.1577 H   0  0  0  0  0  0  0  0  0  0  0  0
    1.1040   -2.3305    0.3136 H   0  0  0  0  0  0  0  0  0  0  0  0
   -0.1968   -5.3816    1.8919 H   0  0  0  0  0  0  0  0  0  0  0  0
    0.6624   -3.8689    1.8229 H   0  0  0  0  0  0  0  0  0  0  0  0
    2.1985   -5.7370    1.2486 H   0  0  0  0  0  0  0  0  0  0  0  0
    1.9737   -4.7127   -0.1914 H   0  0  0  0  0  0  0  0  0  0  0  0
   -0.8960   -6.8872   -1.9380 H   0  0  0  0  0  0  0  0  0  0  0  0
    0.0901   -5.4180   -2.1364 H   0  0  0  0  0  0  0  0  0  0  0  0
   -1.8946   -5.9616    0.1602 H   0  0  0  0  0  0  0  0  0  0  0  0
   -2.1581   -4.8941   -1.2120 H   0  0  0  0  0  0  0  0  0  0  0  0
   -3.0331   -3.0959   -0.3774 H   0  0  0  0  0  0  0  0  0  0  0  0
   -1.5733    0.9416   -0.4504 H   0  0  0  0  0  0  0  0  0  0  0  0
    2.6710    2.0709    0.1469 H   0  0  0  0  0  0  0  0  0  0  0  0
    4.8606   -0.9040   -0.5892 H   0  0  0  0  0  0  0  0  0  0  0  0
    7.2283   -0.7554   -0.8772 H   0  0  0  0  0  0  0  0  0  0  0  0
    8.3081   -0.1257    1.5711 H   0  0  0  0  0  0  0  0  0  0  0  0
    9.8791   -1.9443    2.1774 H   0  0  0  0  0  0  0  0  0  0  0  0
   13.0505   -0.3523   -1.7534 H   0  0  0  0  0  0  0  0  0  0  0  0
   15.3944   -3.0660   -1.2940 H   0  0  0  0  0  0  0  0  0  0  0  0
   16.9787   -1.1725   -1.3809 H   0  0  0  0  0  0  0  0  0  0  0  0
   15.6442    0.0314   -1.1155 H   0  0  0  0  0  0  0  0  0  0  0  0
   15.8210   -2.0062   -3.4629 H   0  0  0  0  0  0  0  0  0  0  0  0
   14.4997   -0.7933   -3.2256 H   0  0  0  0  0  0  0  0  0  0  0  0
   11.0180    0.9209   -1.6216 H   0  0  0  0  0  0  0  0  0  0  0  0
    4.6472    3.3720    0.0716 H   0  0  0  0  0  0  0  0  0  0  0  0
  1  2  2  0  0  0  0
  2  3  1  0  0  0  0
  2 22  1  0  0  0  0
  3  4  1  0  0  0  0
  3 43  1  0  0  0  0
  4  5  1  0  0  0  0
  4 21  2  0  0  0  0
  5  6  2  0  0  0  0
  5 44  1  0  0  0  0
  6  7  1  0  0  0  0
  6 15  1  0  0  0  0
  7  8  1  0  0  0  0
  7 14  1  0  0  0  0
  8  9  1  0  0  0  0
  8 45  1  0  0  0  0
  8 46  1  0  0  0  0
  9 10  1  0  0  0  0
  9 47  1  0  0  0  0
  9 48  1  0  0  0  0
 10 11  2  0  0  0  0
 10 12  2  0  0  0  0
 10 13  1  0  0  0  0
 13 14  1  0  0  0  0
 13 49  1  0  0  0  0
 13 50  1  0  0  0  0
 14 51  1  0  0  0  0
 14 52  1  0  0  0  0
 15 16  2  0  0  0  0
 15 53  1  0  0  0  0
 16 17  1  0  0  0  0
 16 21  1  0  0  0  0
 17 18  1  0  0  0  0
 17 19  1  0  0  0  0
 17 20  1  0  0  0  0
 21 54  1  0  0  0  0
 22 23  1  0  0  0  0
 22 55  1  0  0  0  0
 23 24  1  0  0  0  0
 23 42  2  0  0  0  0
 24 25  2  0  0  0  0
 24 56  1  0  0  0  0
 25 26  1  0  0  0  0
 25 57  1  0  0  0  0
 26 27  1  0  0  0  0
 26 40  2  0  0  0  0
 27 28  1  0  0  0  0
 28 29  1  0  0  0  0
 28 39  2  0  0  0  0
 29 30  2  0  0  0  0
 29 58  1  0  0  0  0
 30 31  1  0  0  0  0
 30 59  1  0  0  0  0
 31 32  2  0  0  0  0
 32 33  1  0  0  0  0
 32 39  1  0  0  0  0
 33 34  1  0  0  0  0
 33 60  1  0  0  0  0
 34 35  2  0  0  0  0
 34 36  1  0  0  0  0
 36 37  1  0  0  0  0
 36 38  1  0  0  0  0
 36 61  1  0  0  0  0
 37 38  1  0  0  0  0
 37 62  1  0  0  0  0
 37 63  1  0  0  0  0
 38 64  1  0  0  0  0
 38 65  1  0  0  0  0
 39 66  1  0  0  0  0
 40 41  1  0  0  0  0
 40 42  1  0  0  0  0
 42 67  1  0  0  0  0
M  END
$$$$
