CHEMBL214775
 OpenBabel04072215363D

 79 82  0  0  0  0  0  0  0  0999 V2000
    1.3790   -0.4093    0.5241 C   0  0  0  0  0  0  0  0  0  0  0  0
    2.7319   -0.1507    0.1523 O   0  0  0  0  0  0  0  0  0  0  0  0
    3.2313   -0.8669   -0.9007 C   0  0  0  0  0  0  0  0  0  0  0  0
    2.4708   -1.4388   -1.9184 C   0  0  0  0  0  0  0  0  0  0  0  0
    3.0995   -2.1722   -2.9431 C   0  0  0  0  0  0  0  0  0  0  0  0
    4.4930   -2.3454   -2.9630 C   0  0  0  0  0  0  0  0  0  0  0  0
    5.1184   -3.1926   -3.9279 N   0  0  0  0  0  0  0  0  0  0  0  0
    5.8740   -4.3263   -3.5801 C   0  0  0  0  0  0  0  0  0  0  0  0
    6.6012   -4.9404   -4.3617 O   0  0  0  0  0  0  0  0  0  0  0  0
    5.6904   -4.7225   -2.2506 O   0  0  0  0  0  0  0  0  0  0  0  0
    5.9911   -6.0276   -1.7558 C   0  0  0  0  0  0  0  0  0  0  0  0
    5.3139   -7.1686   -2.2252 C   0  0  0  0  0  0  0  0  0  0  0  0
    4.5458   -7.2630   -3.5107 C   0  0  0  0  0  0  0  0  0  0  0  0
    5.3276   -8.3253   -1.4234 C   0  0  0  0  0  0  0  0  0  0  0  0
    6.0408   -8.3719   -0.2287 C   0  0  0  0  0  0  0  0  0  0  0  0
    6.7987   -7.2745    0.1643 C   0  0  0  0  0  0  0  0  0  0  0  0
    6.7803   -6.0881   -0.5864 C   0  0  0  0  0  0  0  0  0  0  0  0
    7.6531   -4.9430   -0.1595 C   0  0  0  0  0  0  0  0  0  0  0  0
    4.7245   -3.0378   -5.2824 C   0  0  0  0  0  0  0  0  0  0  0  0
    4.9954   -1.8384   -5.9155 C   0  0  0  0  0  0  0  0  0  0  0  0
    4.6221   -1.7446   -7.2258 C   0  0  0  0  0  0  0  0  0  0  0  0
    3.9460   -2.7100   -7.8498 N   0  0  0  0  0  0  0  0  0  0  0  0
    3.6838   -3.8368   -7.1673 C   0  0  0  0  0  0  0  0  0  0  0  0
    2.9415   -4.8352   -7.7885 N   0  0  0  0  0  0  0  0  0  0  0  0
    1.9495   -4.6942   -8.7696 C   0  0  0  0  0  0  0  0  0  0  0  0
    1.6944   -5.7507   -9.6457 C   0  0  0  0  0  0  0  0  0  0  0  0
    0.7930   -5.5946  -10.7082 C   0  0  0  0  0  0  0  0  0  0  0  0
    0.1309   -4.3805  -10.9063 C   0  0  0  0  0  0  0  0  0  0  0  0
   -0.7371   -4.0902  -11.9227 O   0  0  0  0  0  0  0  0  0  0  0  0
   -0.9312   -5.1225  -12.8873 C   0  0  0  0  0  0  0  0  0  0  0  0
   -1.8815   -4.6025  -13.9584 C   0  0  0  0  0  0  0  0  0  0  0  0
   -2.1989   -5.6727  -15.0062 C   0  0  0  0  0  0  0  0  0  0  0  0
   -2.7666   -6.9106  -14.4450 N   0  0  0  0  0  0  0  0  0  0  0  0
   -4.0554   -6.6819  -13.7878 C   0  0  0  0  0  0  0  0  0  0  0  0
   -2.9154   -7.9196  -15.4955 C   0  0  0  0  0  0  0  0  0  0  0  0
    0.3544   -3.3344  -10.0183 C   0  0  0  0  0  0  0  0  0  0  0  0
    1.2638   -3.4868   -8.9691 C   0  0  0  0  0  0  0  0  0  0  0  0
    4.0955   -4.0565   -5.9103 N   0  0  0  0  0  0  0  0  0  0  0  0
    5.2519   -1.6810   -1.9848 C   0  0  0  0  0  0  0  0  0  0  0  0
    6.6249   -1.6343   -1.9952 O   0  0  0  0  0  0  0  0  0  0  0  0
    7.1225   -0.9948   -3.1756 C   0  0  0  0  0  0  0  0  0  0  0  0
    4.6224   -0.9746   -0.9529 C   0  0  0  0  0  0  0  0  0  0  0  0
    1.1732    0.1561    1.4395 H   0  0  0  0  0  0  0  0  0  0  0  0
    1.2275   -1.4703    0.7470 H   0  0  0  0  0  0  0  0  0  0  0  0
    0.6820   -0.0598   -0.2414 H   0  0  0  0  0  0  0  0  0  0  0  0
    1.3919   -1.3446   -1.9458 H   0  0  0  0  0  0  0  0  0  0  0  0
    2.4750   -2.6405   -3.7021 H   0  0  0  0  0  0  0  0  0  0  0  0
    4.7932   -6.4896   -4.2330 H   0  0  0  0  0  0  0  0  0  0  0  0
    3.4705   -7.2340   -3.3213 H   0  0  0  0  0  0  0  0  0  0  0  0
    4.7919   -8.2118   -4.0060 H   0  0  0  0  0  0  0  0  0  0  0  0
    4.7619   -9.2039   -1.7294 H   0  0  0  0  0  0  0  0  0  0  0  0
    6.0189   -9.2702    0.3827 H   0  0  0  0  0  0  0  0  0  0  0  0
    7.3832   -7.3407    1.0794 H   0  0  0  0  0  0  0  0  0  0  0  0
    8.0882   -5.1237    0.8308 H   0  0  0  0  0  0  0  0  0  0  0  0
    7.0896   -4.0091   -0.1061 H   0  0  0  0  0  0  0  0  0  0  0  0
    8.4844   -4.8341   -0.8649 H   0  0  0  0  0  0  0  0  0  0  0  0
    5.5282   -1.0277   -5.4480 H   0  0  0  0  0  0  0  0  0  0  0  0
    4.8591   -0.8755   -7.8311 H   0  0  0  0  0  0  0  0  0  0  0  0
    2.9881   -5.7122   -7.2954 H   0  0  0  0  0  0  0  0  0  0  0  0
    2.2268   -6.6925   -9.5423 H   0  0  0  0  0  0  0  0  0  0  0  0
    0.6407   -6.4413  -11.3695 H   0  0  0  0  0  0  0  0  0  0  0  0
   -1.3614   -6.0003  -12.3932 H   0  0  0  0  0  0  0  0  0  0  0  0
    0.0256   -5.3848  -13.3564 H   0  0  0  0  0  0  0  0  0  0  0  0
   -1.4248   -3.7351  -14.4527 H   0  0  0  0  0  0  0  0  0  0  0  0
   -2.7962   -4.2142  -13.4951 H   0  0  0  0  0  0  0  0  0  0  0  0
   -1.2573   -5.9170  -15.5168 H   0  0  0  0  0  0  0  0  0  0  0  0
   -2.8675   -5.2462  -15.7643 H   0  0  0  0  0  0  0  0  0  0  0  0
   -3.9454   -6.0349  -12.9115 H   0  0  0  0  0  0  0  0  0  0  0  0
   -4.4665   -7.6246  -13.4090 H   0  0  0  0  0  0  0  0  0  0  0  0
   -4.7893   -6.2312  -14.4646 H   0  0  0  0  0  0  0  0  0  0  0  0
   -1.9453   -8.1485  -15.9505 H   0  0  0  0  0  0  0  0  0  0  0  0
   -3.6017   -7.5936  -16.2851 H   0  0  0  0  0  0  0  0  0  0  0  0
   -3.2915   -8.8592  -15.0755 H   0  0  0  0  0  0  0  0  0  0  0  0
   -0.1617   -2.3870  -10.1503 H   0  0  0  0  0  0  0  0  0  0  0  0
    1.4206   -2.6426   -8.3034 H   0  0  0  0  0  0  0  0  0  0  0  0
    8.0503   -0.4651   -2.9268 H   0  0  0  0  0  0  0  0  0  0  0  0
    6.4279   -0.2536   -3.5836 H   0  0  0  0  0  0  0  0  0  0  0  0
    7.3691   -1.7481   -3.9286 H   0  0  0  0  0  0  0  0  0  0  0  0
    5.2246   -0.4886   -0.1851 H   0  0  0  0  0  0  0  0  0  0  0  0
  1  2  1  0  0  0  0
  1 43  1  0  0  0  0
  1 44  1  0  0  0  0
  1 45  1  0  0  0  0
  2  3  1  0  0  0  0
  3  4  1  0  0  0  0
  3 42  2  0  0  0  0
  4  5  2  0  0  0  0
  4 46  1  0  0  0  0
  5  6  1  0  0  0  0
  5 47  1  0  0  0  0
  6  7  1  0  0  0  0
  6 39  2  0  0  0  0
  7  8  1  0  0  0  0
  7 19  1  0  0  0  0
  8  9  2  0  0  0  0
  8 10  1  0  0  0  0
 10 11  1  0  0  0  0
 11 12  1  0  0  0  0
 11 17  2  0  0  0  0
 12 13  1  0  0  0  0
 12 14  2  0  0  0  0
 13 48  1  0  0  0  0
 13 49  1  0  0  0  0
 13 50  1  0  0  0  0
 14 15  1  0  0  0  0
 14 51  1  0  0  0  0
 15 16  2  0  0  0  0
 15 52  1  0  0  0  0
 16 17  1  0  0  0  0
 16 53  1  0  0  0  0
 17 18  1  0  0  0  0
 18 54  1  0  0  0  0
 18 55  1  0  0  0  0
 18 56  1  0  0  0  0
 19 20  1  0  0  0  0
 19 38  2  0  0  0  0
 20 21  2  0  0  0  0
 20 57  1  0  0  0  0
 21 22  1  0  0  0  0
 21 58  1  0  0  0  0
 22 23  2  0  0  0  0
 23 24  1  0  0  0  0
 23 38  1  0  0  0  0
 24 25  1  0  0  0  0
 24 59  1  0  0  0  0
 25 26  1  0  0  0  0
 25 37  2  0  0  0  0
 26 27  2  0  0  0  0
 26 60  1  0  0  0  0
 27 28  1  0  0  0  0
 27 61  1  0  0  0  0
 28 29  1  0  0  0  0
 28 36  2  0  0  0  0
 29 30  1  0  0  0  0
 30 31  1  0  0  0  0
 30 62  1  0  0  0  0
 30 63  1  0  0  0  0
 31 32  1  0  0  0  0
 31 64  1  0  0  0  0
 31 65  1  0  0  0  0
 32 33  1  0  0  0  0
 32 66  1  0  0  0  0
 32 67  1  0  0  0  0
 33 34  1  0  0  0  0
 33 35  1  0  0  0  0
 34 68  1  0  0  0  0
 34 69  1  0  0  0  0
 34 70  1  0  0  0  0
 35 71  1  0  0  0  0
 35 72  1  0  0  0  0
 35 73  1  0  0  0  0
 36 37  1  0  0  0  0
 36 74  1  0  0  0  0
 37 75  1  0  0  0  0
 39 40  1  0  0  0  0
 39 42  1  0  0  0  0
 40 41  1  0  0  0  0
 41 76  1  0  0  0  0
 41 77  1  0  0  0  0
 41 78  1  0  0  0  0
 42 79  1  0  0  0  0
M  END
$$$$
