CHEMBL3656111
 OpenBabel04072215373D

 67 71  0  0  1  0  0  0  0  0999 V2000
    2.8341   -5.1538   -1.0823 C   0  0  0  0  0  0  0  0  0  0  0  0
    1.5124   -4.5120   -0.7709 C   0  0  0  0  0  0  0  0  0  0  0  0
    1.4875   -3.2452   -0.1776 C   0  0  0  0  0  0  0  0  0  0  0  0
    0.2757   -2.6395    0.1195 C   0  0  0  0  0  0  0  0  0  0  0  0
   -0.9195   -3.2938   -0.1727 C   0  0  0  0  0  0  0  0  0  0  0  0
   -0.9341   -4.5571   -0.7766 C   0  0  0  0  0  0  0  0  0  0  0  0
   -2.1364   -5.2519   -1.0829 N   0  0  0  0  0  0  0  0  0  0  0  0
   -3.4089   -4.7219   -0.9601 C   0  0  0  0  0  0  0  0  0  0  0  0
   -3.6551   -3.5585   -0.6600 O   0  0  0  0  0  0  0  0  0  0  0  0
   -4.4131   -5.6635   -1.1759 N   0  0  0  0  0  0  0  0  0  0  0  0
   -5.7671   -5.2490   -1.0613 C   0  0  0  0  0  0  0  0  0  0  0  0
   -6.1965   -4.0486   -1.6408 C   0  0  0  0  0  0  0  0  0  0  0  0
   -7.4682   -3.5415   -1.3758 C   0  0  0  0  0  0  0  0  0  0  0  0
   -8.3561   -4.2690   -0.5853 C   0  0  0  0  0  0  0  0  0  0  0  0
   -9.6156   -3.8337   -0.2341 O   0  0  0  0  0  0  0  0  0  0  0  0
  -10.3487   -3.0585   -1.1067 C   0  0  0  0  0  0  0  0  0  0  0  0
  -10.3048   -3.1899   -2.4919 C   0  0  0  0  0  0  0  0  0  0  0  0
  -11.0894   -2.3438   -3.2518 C   0  0  0  0  0  0  0  0  0  0  0  0
  -11.9378   -1.4366   -2.7279 N   0  0  0  0  0  0  0  0  0  0  0  0
  -12.0125   -1.3699   -1.3743 C   0  0  0  0  0  0  0  0  0  0  0  0
  -13.0022   -0.4113   -0.8962 C   0  0  0  0  0  0  0  0  0  0  0  0
  -13.4133   -0.0214    0.3671 C   0  0  0  0  0  0  0  0  0  0  0  0
  -14.4013    1.0021    0.2289 C   0  0  0  0  0  0  0  0  0  0  0  0
  -15.0505    1.7394    1.3070 C   0  0  0  0  0  0  0  0  0  0  0  0
  -15.4321    1.1398    2.3187 O   0  0  0  0  0  0  0  0  0  0  0  0
  -15.1654    3.1272    1.1869 N   0  0  0  0  0  0  0  0  0  0  0  0
  -15.8295    3.8618    2.2667 C   0  0  0  0  0  0  0  0  0  0  0  0
  -15.3021    5.2937    2.4144 C   0  0  0  0  0  0  0  0  0  0  0  0
  -13.8026    5.3289    2.1430 C   0  0  0  0  0  0  0  0  0  0  0  0
  -13.5072    4.9078    0.7007 C   0  0  1  0  0  0  0  0  0  0  0  0
  -12.2151    4.3009    0.6518 O   0  0  0  0  0  0  0  0  0  0  0  0
  -14.5737    3.9568    0.1299 C   0  0  0  0  0  0  0  0  0  0  0  0
  -14.6556    1.1037   -1.1269 C   0  0  0  0  0  0  0  0  0  0  0  0
  -13.7593    0.3146   -1.7888 N   0  0  0  0  0  0  0  0  0  0  0  0
  -11.2362   -2.1508   -0.5313 C   0  0  0  0  0  0  0  0  0  0  0  0
   -7.9412   -5.4840   -0.0285 C   0  0  0  0  0  0  0  0  0  0  0  0
   -6.6569   -5.9878   -0.2818 C   0  0  0  0  0  0  0  0  0  0  0  0
    0.2969   -5.1630   -1.0709 C   0  0  0  0  0  0  0  0  0  0  0  0
    3.6720   -4.5270   -0.7513 H   0  0  0  0  0  0  0  0  0  0  0  0
    2.9358   -5.3043   -2.1598 H   0  0  0  0  0  0  0  0  0  0  0  0
    2.9172   -6.1144   -0.5681 H   0  0  0  0  0  0  0  0  0  0  0  0
    2.4094   -2.7209    0.0589 H   0  0  0  0  0  0  0  0  0  0  0  0
    0.2489   -1.6558    0.5805 H   0  0  0  0  0  0  0  0  0  0  0  0
   -1.8284   -2.7674    0.0958 H   0  0  0  0  0  0  0  0  0  0  0  0
   -2.0522   -6.1433   -1.5482 H   0  0  0  0  0  0  0  0  0  0  0  0
   -4.1958   -6.5921   -0.8443 H   0  0  0  0  0  0  0  0  0  0  0  0
   -5.5228   -3.4649   -2.2649 H   0  0  0  0  0  0  0  0  0  0  0  0
   -7.7288   -2.5660   -1.7754 H   0  0  0  0  0  0  0  0  0  0  0  0
   -9.6709   -3.9190   -2.9817 H   0  0  0  0  0  0  0  0  0  0  0  0
  -11.0580   -2.3783   -4.3368 H   0  0  0  0  0  0  0  0  0  0  0  0
  -13.0299   -0.3980    1.3074 H   0  0  0  0  0  0  0  0  0  0  0  0
  -15.7009    3.3281    3.2148 H   0  0  0  0  0  0  0  0  0  0  0  0
  -16.9030    3.8807    2.0461 H   0  0  0  0  0  0  0  0  0  0  0  0
  -15.5255    5.6736    3.4168 H   0  0  0  0  0  0  0  0  0  0  0  0
  -15.8143    5.9548    1.7037 H   0  0  0  0  0  0  0  0  0  0  0  0
  -13.2839    4.6667    2.8488 H   0  0  0  0  0  0  0  0  0  0  0  0
  -13.4000    6.3325    2.3191 H   0  0  0  0  0  0  0  0  0  0  0  0
  -13.4584    5.7914    0.0547 H   0  0  0  0  0  0  0  0  0  0  0  0
  -12.2909    3.4162    1.0537 H   0  0  0  0  0  0  0  0  0  0  0  0
  -14.1106    3.3741   -0.6614 H   0  0  0  0  0  0  0  0  0  0  0  0
  -15.3993    4.5248   -0.3147 H   0  0  0  0  0  0  0  0  0  0  0  0
  -15.3634    1.7101   -1.6762 H   0  0  0  0  0  0  0  0  0  0  0  0
  -13.6492    0.2332   -2.7924 H   0  0  0  0  0  0  0  0  0  0  0  0
  -11.3167   -2.0693    0.5462 H   0  0  0  0  0  0  0  0  0  0  0  0
   -8.6096   -6.0243    0.6377 H   0  0  0  0  0  0  0  0  0  0  0  0
   -6.3465   -6.9074    0.2049 H   0  0  0  0  0  0  0  0  0  0  0  0
    0.3281   -6.1447   -1.5373 H   0  0  0  0  0  0  0  0  0  0  0  0
  1  2  1  0  0  0  0
  1 39  1  0  0  0  0
  1 40  1  0  0  0  0
  1 41  1  0  0  0  0
  2  3  1  0  0  0  0
  2 38  2  0  0  0  0
  3  4  2  0  0  0  0
  3 42  1  0  0  0  0
  4  5  1  0  0  0  0
  4 43  1  0  0  0  0
  5  6  2  0  0  0  0
  5 44  1  0  0  0  0
  6  7  1  0  0  0  0
  6 38  1  0  0  0  0
  7  8  1  0  0  0  0
  7 45  1  0  0  0  0
  8  9  2  0  0  0  0
  8 10  1  0  0  0  0
 10 11  1  0  0  0  0
 10 46  1  0  0  0  0
 11 12  1  0  0  0  0
 11 37  2  0  0  0  0
 12 13  2  0  0  0  0
 12 47  1  0  0  0  0
 13 14  1  0  0  0  0
 13 48  1  0  0  0  0
 14 15  1  0  0  0  0
 14 36  2  0  0  0  0
 15 16  1  0  0  0  0
 16 17  1  0  0  0  0
 16 35  2  0  0  0  0
 17 18  2  0  0  0  0
 17 49  1  0  0  0  0
 18 19  1  0  0  0  0
 18 50  1  0  0  0  0
 19 20  2  0  0  0  0
 20 21  1  0  0  0  0
 20 35  1  0  0  0  0
 21 22  2  0  0  0  0
 21 34  1  0  0  0  0
 22 23  1  0  0  0  0
 22 51  1  0  0  0  0
 23 24  1  0  0  0  0
 23 33  2  0  0  0  0
 24 25  2  0  0  0  0
 24 26  1  0  0  0  0
 26 27  1  0  0  0  0
 26 32  1  0  0  0  0
 27 28  1  0  0  0  0
 27 52  1  0  0  0  0
 27 53  1  0  0  0  0
 28 29  1  0  0  0  0
 28 54  1  0  0  0  0
 28 55  1  0  0  0  0
 29 30  1  0  0  0  0
 29 56  1  0  0  0  0
 29 57  1  0  0  0  0
 30 31  1  0  0  0  0
 30 32  1  0  0  0  0
 30 58  1  6  0  0  0
 31 59  1  0  0  0  0
 32 60  1  0  0  0  0
 32 61  1  0  0  0  0
 33 34  1  0  0  0  0
 33 62  1  0  0  0  0
 34 63  1  0  0  0  0
 35 64  1  0  0  0  0
 36 37  1  0  0  0  0
 36 65  1  0  0  0  0
 37 66  1  0  0  0  0
 38 67  1  0  0  0  0
M  END
$$$$
