CHEMBL3931724
 OpenBabel04072215373D

 66 69  0  0  1  0  0  0  0  0999 V2000
   10.5081   11.4271   -0.9481 C   0  0  0  0  0  0  0  0  0  0  0  0
   10.4063   10.8017    0.4321 C   0  0  0  0  0  0  0  0  0  0  0  0
   10.1482    9.2971    0.3503 C   0  0  0  0  0  0  0  0  0  0  0  0
   10.0502    8.6971    1.7505 C   0  0  0  0  0  0  0  0  0  0  0  0
    9.7935    7.1936    1.7162 C   0  0  0  0  0  0  0  0  0  0  0  0
    9.6866    6.6446    3.1338 C   0  0  0  0  0  0  0  0  0  0  0  0
    9.2959    7.3435    4.0442 O   0  0  0  0  0  0  0  0  0  0  0  0
    9.9569    5.2877    3.3228 N   0  0  0  0  0  0  0  0  0  0  0  0
   10.4308    4.3166    2.3350 C   0  0  0  0  0  0  0  0  0  0  0  0
    9.3959    3.2203    2.0222 C   0  0  0  0  0  0  0  0  0  0  0  0
    8.8150    2.6712    3.2128 O   0  0  0  0  0  0  0  0  0  0  0  0
    8.2640    3.6980    4.0694 C   0  0  3  0  0  0  0  0  0  0  0  0
    7.0948    4.4601    3.4035 C   0  0  0  0  0  0  0  0  0  0  0  0
    7.4205    5.1231    2.1812 O   0  0  0  0  0  0  0  0  0  0  0  0
    6.4232    5.1749    1.2662 C   0  0  0  0  0  0  0  0  0  0  0  0
    6.8322    5.1534   -0.1006 C   0  0  0  0  0  0  0  0  0  0  0  0
    5.9058    5.3421   -1.1469 C   0  0  0  0  0  0  0  0  0  0  0  0
    6.3145    5.4081   -2.4246 N   0  0  0  0  0  0  0  0  0  0  0  0
    5.3579    5.6538   -3.3496 C   0  0  0  0  0  0  0  0  0  0  0  0
    4.0798    5.8732   -3.1289 N   0  0  0  0  0  0  0  0  0  0  0  0
    3.6565    5.8172   -1.8566 C   0  0  0  0  0  0  0  0  0  0  0  0
    2.3095    6.0837   -1.5648 N   0  0  0  0  0  0  0  0  0  0  0  0
    1.1710    6.0304   -2.4052 C   0  0  0  0  0  0  0  0  0  0  0  0
    1.2117    5.4716   -3.6846 C   0  0  0  0  0  0  0  0  0  0  0  0
    0.1389    5.6050   -4.5743 C   0  0  0  0  0  0  0  0  0  0  0  0
   -1.0189    6.2706   -4.1718 C   0  0  0  0  0  0  0  0  0  0  0  0
   -2.2681    6.4930   -5.3437 Cl  0  0  0  0  0  0  0  0  0  0  0  0
   -1.1110    6.7651   -2.8678 C   0  0  0  0  0  0  0  0  0  0  0  0
   -2.4955    7.6408   -2.3109 Cl  0  0  0  0  0  0  0  0  0  0  0  0
   -0.0229    6.6335   -1.9869 C   0  0  0  0  0  0  0  0  0  0  0  0
    4.5808    5.4719   -0.8332 C   0  0  0  0  0  0  0  0  0  0  0  0
    4.1885    5.2815    0.4983 C   0  0  0  0  0  0  0  0  0  0  0  0
    5.0518    5.2612    1.5554 C   0  0  0  0  0  0  0  0  0  0  0  0
    4.5026    5.4702    2.8137 O   0  0  0  0  0  0  0  0  0  0  0  0
    3.1305    5.0527    3.0067 C   0  0  0  0  0  0  0  0  0  0  0  0
    9.3723    4.6702    4.5126 C   0  0  0  0  0  0  0  0  0  0  0  0
   10.7064   12.5000   -0.8633 H   0  0  0  0  0  0  0  0  0  0  0  0
    9.5761   11.2958   -1.5066 H   0  0  0  0  0  0  0  0  0  0  0  0
   11.3222   10.9747   -1.5230 H   0  0  0  0  0  0  0  0  0  0  0  0
    9.5983   11.2893    0.9903 H   0  0  0  0  0  0  0  0  0  0  0  0
   11.3366   10.9893    0.9816 H   0  0  0  0  0  0  0  0  0  0  0  0
   10.9590    8.8114   -0.2057 H   0  0  0  0  0  0  0  0  0  0  0  0
    9.2180    9.1098   -0.1997 H   0  0  0  0  0  0  0  0  0  0  0  0
    9.2468    9.2014    2.3008 H   0  0  0  0  0  0  0  0  0  0  0  0
   10.9794    8.8866    2.3012 H   0  0  0  0  0  0  0  0  0  0  0  0
   10.5782    6.7060    1.1432 H   0  0  0  0  0  0  0  0  0  0  0  0
    8.8367    7.0041    1.2224 H   0  0  0  0  0  0  0  0  0  0  0  0
   11.2915    3.8291    2.7990 H   0  0  0  0  0  0  0  0  0  0  0  0
   10.7711    4.7853    1.4122 H   0  0  0  0  0  0  0  0  0  0  0  0
    9.8578    2.3999    1.4673 H   0  0  0  0  0  0  0  0  0  0  0  0
    8.6131    3.5699    1.3548 H   0  0  0  0  0  0  0  0  0  0  0  0
    7.8689    3.1973    4.9628 H   0  0  0  0  0  0  0  0  0  0  0  0
    6.8019    5.2258    4.1117 H   0  0  0  0  0  0  0  0  0  0  0  0
    6.2513    3.7815    3.2315 H   0  0  0  0  0  0  0  0  0  0  0  0
    7.8832    5.0381   -0.3568 H   0  0  0  0  0  0  0  0  0  0  0  0
    5.6823    5.6859   -4.3849 H   0  0  0  0  0  0  0  0  0  0  0  0
    2.1542    6.4695   -0.6449 H   0  0  0  0  0  0  0  0  0  0  0  0
    2.1131    4.9819   -4.0462 H   0  0  0  0  0  0  0  0  0  0  0  0
    0.2434    5.2465   -5.5951 H   0  0  0  0  0  0  0  0  0  0  0  0
   -0.0938    7.0776   -0.9964 H   0  0  0  0  0  0  0  0  0  0  0  0
    3.1309    5.2005    0.7149 H   0  0  0  0  0  0  0  0  0  0  0  0
    2.8569    5.2704    4.0463 H   0  0  0  0  0  0  0  0  0  0  0  0
    3.0251    3.9626    2.8566 H   0  0  0  0  0  0  0  0  0  0  0  0
    2.3743    5.6125    2.4081 H   0  0  0  0  0  0  0  0  0  0  0  0
   10.1799    4.1348    5.0245 H   0  0  0  0  0  0  0  0  0  0  0  0
    8.9660    5.4116    5.2088 H   0  0  0  0  0  0  0  0  0  0  0  0
  1  2  1  0  0  0  0
  1 37  1  0  0  0  0
  1 38  1  0  0  0  0
  1 39  1  0  0  0  0
  2  3  1  0  0  0  0
  2 40  1  0  0  0  0
  2 41  1  0  0  0  0
  3  4  1  0  0  0  0
  3 42  1  0  0  0  0
  3 43  1  0  0  0  0
  4  5  1  0  0  0  0
  4 44  1  0  0  0  0
  4 45  1  0  0  0  0
  5  6  1  0  0  0  0
  5 46  1  0  0  0  0
  5 47  1  0  0  0  0
  6  7  2  0  0  0  0
  6  8  1  0  0  0  0
  8  9  1  0  0  0  0
  8 36  1  0  0  0  0
  9 10  1  0  0  0  0
  9 48  1  0  0  0  0
  9 49  1  0  0  0  0
 10 11  1  0  0  0  0
 10 50  1  0  0  0  0
 10 51  1  0  0  0  0
 11 12  1  0  0  0  0
 12 13  1  0  0  0  0
 12 36  1  0  0  0  0
 12 52  1  0  0  0  0
 13 14  1  0  0  0  0
 13 53  1  0  0  0  0
 13 54  1  0  0  0  0
 14 15  1  0  0  0  0
 15 16  1  0  0  0  0
 15 33  2  0  0  0  0
 16 17  2  0  0  0  0
 16 55  1  0  0  0  0
 17 18  1  0  0  0  0
 17 31  1  0  0  0  0
 18 19  2  0  0  0  0
 19 20  1  0  0  0  0
 19 56  1  0  0  0  0
 20 21  2  0  0  0  0
 21 22  1  0  0  0  0
 21 31  1  0  0  0  0
 22 23  1  0  0  0  0
 22 57  1  0  0  0  0
 23 24  1  0  0  0  0
 23 30  2  0  0  0  0
 24 25  2  0  0  0  0
 24 58  1  0  0  0  0
 25 26  1  0  0  0  0
 25 59  1  0  0  0  0
 26 27  1  0  0  0  0
 26 28  2  0  0  0  0
 28 29  1  0  0  0  0
 28 30  1  0  0  0  0
 30 60  1  0  0  0  0
 31 32  2  0  0  0  0
 32 33  1  0  0  0  0
 32 61  1  0  0  0  0
 33 34  1  0  0  0  0
 34 35  1  0  0  0  0
 35 62  1  0  0  0  0
 35 63  1  0  0  0  0
 35 64  1  0  0  0  0
 36 65  1  0  0  0  0
 36 66  1  0  0  0  0
M  END
$$$$
