CHEMBL233380
 OpenBabel04072215363D

 43 45  0  0  0  0  0  0  0  0999 V2000
    6.6952    1.7666   -0.3467 C   0  0  0  0  0  0  0  0  0  0  0  0
    5.5097    0.9041   -0.2924 N   0  0  0  0  0  0  0  0  0  0  0  0
    5.0988    0.5442   -1.6496 C   0  0  0  0  0  0  0  0  0  0  0  0
    5.8095   -0.2820    0.5342 C   0  0  0  0  0  0  0  0  0  0  0  0
    4.6235   -1.2429    0.7403 C   0  0  0  0  0  0  0  0  0  0  0  0
    4.9735   -2.4022    1.6469 C   0  0  0  0  0  0  0  0  0  0  0  0
    5.3910   -2.1703    2.9603 C   0  0  0  0  0  0  0  0  0  0  0  0
    5.6697   -3.2379    3.8125 C   0  0  0  0  0  0  0  0  0  0  0  0
    5.4983   -4.5647    3.3931 C   0  0  0  0  0  0  0  0  0  0  0  0
    5.7195   -5.6528    4.2611 N   0  0  0  0  0  0  0  0  0  0  0  0
    5.5096   -5.6138    5.6448 C   0  0  0  0  0  0  0  0  0  0  0  0
    4.5314   -4.8315    6.1288 N   0  0  0  0  0  0  0  0  0  0  0  0
    4.4155   -4.7246    7.4616 C   0  0  0  0  0  0  0  0  0  0  0  0
    5.2246   -5.3845    8.3517 C   0  0  0  0  0  0  0  0  0  0  0  0
    5.0280   -5.0643   10.0285 Cl  0  0  0  0  0  0  0  0  0  0  0  0
    6.1710   -6.2199    7.7773 C   0  0  0  0  0  0  0  0  0  0  0  0
    7.1044   -7.0469    8.5704 C   0  0  0  0  0  0  0  0  0  0  0  0
    6.9029   -7.6986    9.7782 C   0  0  0  0  0  0  0  0  0  0  0  0
    8.0788   -8.3250   10.2820 C   0  0  0  0  0  0  0  0  0  0  0  0
    9.1374   -8.1950    9.4153 C   0  0  0  0  0  0  0  0  0  0  0  0
    8.7177   -7.3024    8.0203 S   0  0  0  0  0  0  0  0  0  0  0  0
    6.3209   -6.3392    6.4283 N   0  0  0  0  0  0  0  0  0  0  0  0
    5.1341   -4.7959    2.0651 C   0  0  0  0  0  0  0  0  0  0  0  0
    4.8580   -3.7264    1.2030 C   0  0  0  0  0  0  0  0  0  0  0  0
    6.4859    2.6784   -0.9171 H   0  0  0  0  0  0  0  0  0  0  0  0
    7.5513    1.2597   -0.8069 H   0  0  0  0  0  0  0  0  0  0  0  0
    6.9860    2.0881    0.6599 H   0  0  0  0  0  0  0  0  0  0  0  0
    4.9596    1.4423   -2.2621 H   0  0  0  0  0  0  0  0  0  0  0  0
    4.1297    0.0355   -1.6447 H   0  0  0  0  0  0  0  0  0  0  0  0
    5.8325   -0.1005   -2.1461 H   0  0  0  0  0  0  0  0  0  0  0  0
    6.1304    0.0813    1.5189 H   0  0  0  0  0  0  0  0  0  0  0  0
    6.6590   -0.8391    0.1164 H   0  0  0  0  0  0  0  0  0  0  0  0
    4.2883   -1.6401   -0.2243 H   0  0  0  0  0  0  0  0  0  0  0  0
    3.7688   -0.7074    1.1740 H   0  0  0  0  0  0  0  0  0  0  0  0
    5.4875   -1.1577    3.3444 H   0  0  0  0  0  0  0  0  0  0  0  0
    5.9958   -3.0154    4.8252 H   0  0  0  0  0  0  0  0  0  0  0  0
    6.5972   -6.1331    4.0883 H   0  0  0  0  0  0  0  0  0  0  0  0
    3.6344   -4.0475    7.7933 H   0  0  0  0  0  0  0  0  0  0  0  0
    5.9574   -7.7100   10.3063 H   0  0  0  0  0  0  0  0  0  0  0  0
    8.1381   -8.8481   11.2287 H   0  0  0  0  0  0  0  0  0  0  0  0
   10.1402   -8.5814    9.5345 H   0  0  0  0  0  0  0  0  0  0  0  0
    5.0084   -5.8142    1.7063 H   0  0  0  0  0  0  0  0  0  0  0  0
    4.5289   -3.9402    0.1888 H   0  0  0  0  0  0  0  0  0  0  0  0
  1  2  1  0  0  0  0
  1 25  1  0  0  0  0
  1 26  1  0  0  0  0
  1 27  1  0  0  0  0
  2  3  1  0  0  0  0
  2  4  1  0  0  0  0
  3 28  1  0  0  0  0
  3 29  1  0  0  0  0
  3 30  1  0  0  0  0
  4  5  1  0  0  0  0
  4 31  1  0  0  0  0
  4 32  1  0  0  0  0
  5  6  1  0  0  0  0
  5 33  1  0  0  0  0
  5 34  1  0  0  0  0
  6  7  1  0  0  0  0
  6 24  2  0  0  0  0
  7  8  2  0  0  0  0
  7 35  1  0  0  0  0
  8  9  1  0  0  0  0
  8 36  1  0  0  0  0
  9 10  1  0  0  0  0
  9 23  2  0  0  0  0
 10 11  1  0  0  0  0
 10 37  1  0  0  0  0
 11 12  1  0  0  0  0
 11 22  2  0  0  0  0
 12 13  2  0  0  0  0
 13 14  1  0  0  0  0
 13 38  1  0  0  0  0
 14 15  1  0  0  0  0
 14 16  2  0  0  0  0
 16 17  1  0  0  0  0
 16 22  1  0  0  0  0
 17 18  2  0  0  0  0
 17 21  1  0  0  0  0
 18 19  1  0  0  0  0
 18 39  1  0  0  0  0
 19 20  2  0  0  0  0
 19 40  1  0  0  0  0
 20 21  1  0  0  0  0
 20 41  1  0  0  0  0
 23 24  1  0  0  0  0
 23 42  1  0  0  0  0
 24 43  1  0  0  0  0
M  END
$$$$
