CHEMBL3972940
 OpenBabel04072215373D

 66 71  0  0  1  0  0  0  0  0999 V2000
   -2.5809    3.2932    0.4355 C   0  0  0  0  0  0  0  0  0  0  0  0
   -2.2436    4.3688   -0.4345 O   0  0  0  0  0  0  0  0  0  0  0  0
   -0.9791    4.8793   -0.3080 C   0  0  0  0  0  0  0  0  0  0  0  0
   -0.9007    6.2584   -0.5310 C   0  0  0  0  0  0  0  0  0  0  0  0
    0.3333    6.9477   -0.4205 C   0  0  0  0  0  0  0  0  0  0  0  0
    0.5190    8.3334   -0.5420 C   0  0  0  0  0  0  0  0  0  0  0  0
   -0.5953    9.1850   -0.7709 N   0  0  0  0  0  0  0  0  0  0  0  0
   -0.4564   10.5310   -1.1820 C   0  0  0  0  0  0  0  0  0  0  0  0
    0.3908   10.8526   -2.2497 C   0  0  0  0  0  0  0  0  0  0  0  0
    0.6423   12.1783   -2.5987 C   0  0  0  0  0  0  0  0  0  0  0  0
    0.0298   13.2092   -1.8872 C   0  0  0  0  0  0  0  0  0  0  0  0
    0.4857   14.9878   -2.3680 Br  0  0  0  0  0  0  0  0  0  0  0  0
   -0.8620   12.9032   -0.8525 C   0  0  0  0  0  0  0  0  0  0  0  0
   -1.6733   14.1249    0.0634 Cl  0  0  0  0  0  0  0  0  0  0  0  0
   -1.1120   11.5673   -0.5090 C   0  0  0  0  0  0  0  0  0  0  0  0
    1.7376    8.9018   -0.4295 N   0  0  0  0  0  0  0  0  0  0  0  0
    2.7711    8.0959   -0.1982 C   0  0  0  0  0  0  0  0  0  0  0  0
    2.7097    6.7704   -0.0696 N   0  0  0  0  0  0  0  0  0  0  0  0
    1.4982    6.2155   -0.1789 C   0  0  0  0  0  0  0  0  0  0  0  0
    1.4139    4.8472   -0.0228 C   0  0  0  0  0  0  0  0  0  0  0  0
    0.1936    4.1612   -0.0569 C   0  0  0  0  0  0  0  0  0  0  0  0
    0.1025    2.8200    0.1981 O   0  0  0  0  0  0  0  0  0  0  0  0
    1.2191    1.9931   -0.1600 C   0  0  1  0  0  0  0  0  0  0  0  0
    2.1911    1.8440    1.0063 C   0  0  0  0  0  0  0  0  0  0  0  0
    1.6805    0.8070    1.8549 O   0  0  0  0  0  0  0  0  0  0  0  0
    0.9577   -0.1085    1.0159 C   0  0  1  0  0  0  0  0  0  0  0  0
    0.6947    0.5777   -0.3215 C   0  0  2  0  0  0  0  0  0  0  0  0
    1.4205   -0.1519   -1.3220 O   0  0  0  0  0  0  0  0  0  0  0  0
    1.5414   -1.4883   -0.8144 C   0  0  0  0  0  0  0  0  0  0  0  0
    1.8395   -1.3247    0.6776 C   0  0  2  0  0  0  0  0  0  0  0  0
    1.5724   -2.5236    1.4990 N   0  0  0  0  0  0  0  0  0  0  0  0
    1.8095   -2.2875    2.9454 C   0  0  0  0  0  0  0  0  0  0  0  0
    3.2963   -2.1892    3.3660 C   0  0  0  0  0  0  0  0  0  0  0  0
    4.0949   -3.3455    2.9187 N   0  0  0  0  0  0  0  0  0  0  0  0
    5.5122   -3.1442    3.2132 C   0  0  0  0  0  0  0  0  0  0  0  0
    3.8906   -3.6011    1.4834 C   0  0  0  0  0  0  0  0  0  0  0  0
    2.3939   -3.6857    1.0941 C   0  0  0  0  0  0  0  0  0  0  0  0
   -3.6714    3.2005    0.4391 H   0  0  0  0  0  0  0  0  0  0  0  0
   -2.2593    3.4880    1.4643 H   0  0  0  0  0  0  0  0  0  0  0  0
   -2.1882    2.3430    0.0637 H   0  0  0  0  0  0  0  0  0  0  0  0
   -1.8093    6.7997   -0.7813 H   0  0  0  0  0  0  0  0  0  0  0  0
   -1.2717    9.0683   -0.0209 H   0  0  0  0  0  0  0  0  0  0  0  0
    0.8953   10.0584   -2.7973 H   0  0  0  0  0  0  0  0  0  0  0  0
    1.3362   12.3884   -3.4091 H   0  0  0  0  0  0  0  0  0  0  0  0
   -1.7837   11.3440    0.3148 H   0  0  0  0  0  0  0  0  0  0  0  0
    3.7462    8.5580   -0.0993 H   0  0  0  0  0  0  0  0  0  0  0  0
    2.3507    4.3319    0.1539 H   0  0  0  0  0  0  0  0  0  0  0  0
    1.6998    2.3571   -1.0761 H   0  0  0  0  0  0  0  0  0  0  0  0
    2.2984    2.7405    1.6201 H   0  0  0  0  0  0  0  0  0  0  0  0
    3.1803    1.5357    0.6501 H   0  0  0  0  0  0  0  0  0  0  0  0
    0.0211   -0.3710    1.5193 H   0  0  0  0  0  0  0  0  0  0  0  0
   -0.3689    0.5403   -0.5860 H   0  0  0  0  0  0  0  0  0  0  0  0
    2.3426   -1.9990   -1.3550 H   0  0  0  0  0  0  0  0  0  0  0  0
    0.5966   -2.0156   -0.9949 H   0  0  0  0  0  0  0  0  0  0  0  0
    2.8911   -1.0256    0.7802 H   0  0  0  0  0  0  0  0  0  0  0  0
    1.3514   -3.1220    3.4936 H   0  0  0  0  0  0  0  0  0  0  0  0
    1.2734   -1.3987    3.2958 H   0  0  0  0  0  0  0  0  0  0  0  0
    3.3337   -2.1389    4.4622 H   0  0  0  0  0  0  0  0  0  0  0  0
    3.7210   -1.2522    2.9858 H   0  0  0  0  0  0  0  0  0  0  0  0
    5.6686   -3.0089    4.2890 H   0  0  0  0  0  0  0  0  0  0  0  0
    5.9223   -2.2700    2.6939 H   0  0  0  0  0  0  0  0  0  0  0  0
    6.0960   -4.0228    2.9166 H   0  0  0  0  0  0  0  0  0  0  0  0
    4.3594   -4.5582    1.2232 H   0  0  0  0  0  0  0  0  0  0  0  0
    4.3792   -2.8274    0.8784 H   0  0  0  0  0  0  0  0  0  0  0  0
    1.9614   -4.5795    1.5627 H   0  0  0  0  0  0  0  0  0  0  0  0
    2.3107   -3.8655    0.0168 H   0  0  0  0  0  0  0  0  0  0  0  0
  1  2  1  0  0  0  0
  1 38  1  0  0  0  0
  1 39  1  0  0  0  0
  1 40  1  0  0  0  0
  2  3  1  0  0  0  0
  3  4  1  0  0  0  0
  3 21  2  0  0  0  0
  4  5  2  0  0  0  0
  4 41  1  0  0  0  0
  5  6  1  0  0  0  0
  5 19  1  0  0  0  0
  6  7  1  0  0  0  0
  6 16  2  0  0  0  0
  7  8  1  0  0  0  0
  7 42  1  0  0  0  0
  8  9  1  0  0  0  0
  8 15  2  0  0  0  0
  9 10  2  0  0  0  0
  9 43  1  0  0  0  0
 10 11  1  0  0  0  0
 10 44  1  0  0  0  0
 11 12  1  0  0  0  0
 11 13  2  0  0  0  0
 13 14  1  0  0  0  0
 13 15  1  0  0  0  0
 15 45  1  0  0  0  0
 16 17  1  0  0  0  0
 17 18  2  0  0  0  0
 17 46  1  0  0  0  0
 18 19  1  0  0  0  0
 19 20  2  0  0  0  0
 20 21  1  0  0  0  0
 20 47  1  0  0  0  0
 21 22  1  0  0  0  0
 23 24  1  0  0  0  0
 23 27  1  0  0  0  0
 23 22  1  0  0  0  0
 23 48  1  6  0  0  0
 24 25  1  0  0  0  0
 24 49  1  0  0  0  0
 24 50  1  0  0  0  0
 25 26  1  0  0  0  0
 26 27  1  0  0  0  0
 26 30  1  0  0  0  0
 26 51  1  1  0  0  0
 27 28  1  0  0  0  0
 27 52  1  6  0  0  0
 28 29  1  0  0  0  0
 29 30  1  0  0  0  0
 29 53  1  0  0  0  0
 29 54  1  0  0  0  0
 30 31  1  0  0  0  0
 30 55  1  1  0  0  0
 31 32  1  0  0  0  0
 31 37  1  0  0  0  0
 32 33  1  0  0  0  0
 32 56  1  0  0  0  0
 32 57  1  0  0  0  0
 33 34  1  0  0  0  0
 33 58  1  0  0  0  0
 33 59  1  0  0  0  0
 34 35  1  0  0  0  0
 34 36  1  0  0  0  0
 35 60  1  0  0  0  0
 35 61  1  0  0  0  0
 35 62  1  0  0  0  0
 36 37  1  0  0  0  0
 36 63  1  0  0  0  0
 36 64  1  0  0  0  0
 37 65  1  0  0  0  0
 37 66  1  0  0  0  0
M  END
$$$$
