CHEMBL2377456
 OpenBabel04072215363D

 51 56  0  0  0  0  0  0  0  0999 V2000
    5.6331   -0.6326   -1.0343 O   0  0  0  0  0  0  0  0  0  0  0  0
    4.5385   -0.3205   -0.5708 C   0  0  0  0  0  0  0  0  0  0  0  0
    3.6006   -1.2802   -0.2745 N   0  0  0  0  0  0  0  0  0  0  0  0
    2.3351   -0.9986    0.2211 C   0  0  0  0  0  0  0  0  0  0  0  0
    1.4486   -2.1851    0.3770 C   0  0  0  0  0  0  0  0  0  0  0  0
    1.9729   -3.4326    0.7450 C   0  0  0  0  0  0  0  0  0  0  0  0
    1.1437   -4.5560    0.7884 C   0  0  0  0  0  0  0  0  0  0  0  0
   -0.2099   -4.4311    0.4793 C   0  0  0  0  0  0  0  0  0  0  0  0
   -1.2195   -5.8229    0.5070 Cl  0  0  0  0  0  0  0  0  0  0  0  0
   -0.7463   -3.1879    0.1448 C   0  0  0  0  0  0  0  0  0  0  0  0
    0.0815   -2.0614    0.0984 C   0  0  0  0  0  0  0  0  0  0  0  0
    1.9009    0.1970    0.5021 N   0  0  0  0  0  0  0  0  0  0  0  0
    2.8265    1.2231    0.2442 C   0  0  0  0  0  0  0  0  0  0  0  0
    2.5770    2.5961    0.4699 C   0  0  0  0  0  0  0  0  0  0  0  0
    3.6349    3.3728    0.0298 C   0  0  0  0  0  0  0  0  0  0  0  0
    3.6723    4.8651    0.0720 C   0  0  0  0  0  0  0  0  0  0  0  0
    4.3556    5.6357   -0.8420 C   0  0  0  0  0  0  0  0  0  0  0  0
    4.1003    6.9552   -0.5624 N   0  0  0  0  0  0  0  0  0  0  0  0
    4.5177    8.0632   -1.4182 C   0  0  0  0  0  0  0  0  0  0  0  0
    5.8325    8.6531   -0.9771 C   0  0  0  0  0  0  0  0  0  0  0  0
    7.0166    7.9028   -1.0467 C   0  0  0  0  0  0  0  0  0  0  0  0
    8.2219    8.4335   -0.5878 C   0  0  0  0  0  0  0  0  0  0  0  0
    8.2614    9.7253   -0.0696 C   0  0  0  0  0  0  0  0  0  0  0  0
    7.1001   10.4938   -0.0266 C   0  0  0  0  0  0  0  0  0  0  0  0
    5.8920    9.9634   -0.4816 C   0  0  0  0  0  0  0  0  0  0  0  0
    3.3438    7.0556    0.5899 C   0  0  0  0  0  0  0  0  0  0  0  0
    2.8965    8.1784    1.3063 C   0  0  0  0  0  0  0  0  0  0  0  0
    2.1561    7.9681    2.4730 C   0  0  0  0  0  0  0  0  0  0  0  0
    1.8654    6.6825    2.9129 C   0  0  0  0  0  0  0  0  0  0  0  0
    2.3051    5.5707    2.1897 C   0  0  0  0  0  0  0  0  0  0  0  0
    3.0511    5.7486    1.0034 C   0  0  0  0  0  0  0  0  0  0  0  0
    4.9045    2.4165   -0.6246 S   0  0  0  0  0  0  0  0  0  0  0  0
    4.0617    0.9915   -0.2902 C   0  0  0  0  0  0  0  0  0  0  0  0
    3.8774   -2.2175   -0.5272 H   0  0  0  0  0  0  0  0  0  0  0  0
    3.0198   -3.5486    1.0128 H   0  0  0  0  0  0  0  0  0  0  0  0
    1.5594   -5.5231    1.0600 H   0  0  0  0  0  0  0  0  0  0  0  0
   -1.8036   -3.0914   -0.0911 H   0  0  0  0  0  0  0  0  0  0  0  0
   -0.3401   -1.0973   -0.1790 H   0  0  0  0  0  0  0  0  0  0  0  0
    1.6514    2.9902    0.8669 H   0  0  0  0  0  0  0  0  0  0  0  0
    4.9538    5.3564   -1.6994 H   0  0  0  0  0  0  0  0  0  0  0  0
    3.7123    8.8068   -1.4114 H   0  0  0  0  0  0  0  0  0  0  0  0
    4.5940    7.6888   -2.4461 H   0  0  0  0  0  0  0  0  0  0  0  0
    7.0070    6.8890   -1.4413 H   0  0  0  0  0  0  0  0  0  0  0  0
    9.1270    7.8323   -0.6244 H   0  0  0  0  0  0  0  0  0  0  0  0
    9.1976   10.1315    0.3041 H   0  0  0  0  0  0  0  0  0  0  0  0
    7.1334   11.5044    0.3722 H   0  0  0  0  0  0  0  0  0  0  0  0
    4.9963   10.5782   -0.4337 H   0  0  0  0  0  0  0  0  0  0  0  0
    3.1326    9.1875    0.9865 H   0  0  0  0  0  0  0  0  0  0  0  0
    1.8149    8.8231    3.0519 H   0  0  0  0  0  0  0  0  0  0  0  0
    1.3045    6.5359    3.8323 H   0  0  0  0  0  0  0  0  0  0  0  0
    2.0967    4.5744    2.5676 H   0  0  0  0  0  0  0  0  0  0  0  0
  1  2  2  0  0  0  0
  2  3  1  0  0  0  0
  2 33  1  0  0  0  0
  3  4  1  0  0  0  0
  3 34  1  0  0  0  0
  4  5  1  0  0  0  0
  4 12  2  0  0  0  0
  5  6  1  0  0  0  0
  5 11  2  0  0  0  0
  6  7  2  0  0  0  0
  6 35  1  0  0  0  0
  7  8  1  0  0  0  0
  7 36  1  0  0  0  0
  8  9  1  0  0  0  0
  8 10  2  0  0  0  0
 10 11  1  0  0  0  0
 10 37  1  0  0  0  0
 11 38  1  0  0  0  0
 12 13  1  0  0  0  0
 13 14  1  0  0  0  0
 13 33  2  0  0  0  0
 14 15  2  0  0  0  0
 14 39  1  0  0  0  0
 15 16  1  0  0  0  0
 15 32  1  0  0  0  0
 16 17  2  0  0  0  0
 16 31  1  0  0  0  0
 17 18  1  0  0  0  0
 17 40  1  0  0  0  0
 18 19  1  0  0  0  0
 18 26  1  0  0  0  0
 19 20  1  0  0  0  0
 19 41  1  0  0  0  0
 19 42  1  0  0  0  0
 20 21  1  0  0  0  0
 20 25  2  0  0  0  0
 21 22  2  0  0  0  0
 21 43  1  0  0  0  0
 22 23  1  0  0  0  0
 22 44  1  0  0  0  0
 23 24  2  0  0  0  0
 23 45  1  0  0  0  0
 24 25  1  0  0  0  0
 24 46  1  0  0  0  0
 25 47  1  0  0  0  0
 26 27  1  0  0  0  0
 26 31  2  0  0  0  0
 27 28  2  0  0  0  0
 27 48  1  0  0  0  0
 28 29  1  0  0  0  0
 28 49  1  0  0  0  0
 29 30  2  0  0  0  0
 29 50  1  0  0  0  0
 30 31  1  0  0  0  0
 30 51  1  0  0  0  0
 32 33  1  0  0  0  0
M  END
$$$$
