CHEMBL192318
 OpenBabel04072215363D

 72 75  0  0  0  0  0  0  0  0999 V2000
   -1.6122    9.5157    0.4829 C   0  0  0  0  0  0  0  0  0  0  0  0
   -1.9930    8.1895    0.8442 O   0  0  0  0  0  0  0  0  0  0  0  0
   -0.8523    7.3623    0.7257 N   0  0  0  0  0  0  0  0  0  0  0  0
   -0.1192    7.1968    1.8801 C   0  0  0  0  0  0  0  0  0  0  0  0
   -0.2858    7.8321    2.9170 O   0  0  0  0  0  0  0  0  0  0  0  0
    0.9771    6.2015    1.8187 C   0  0  0  0  0  0  0  0  0  0  0  0
    2.0888    6.3827    2.6603 C   0  0  0  0  0  0  0  0  0  0  0  0
    3.1312    5.4454    2.7033 C   0  0  0  0  0  0  0  0  0  0  0  0
    4.2494    5.6030    3.5522 N   0  0  0  0  0  0  0  0  0  0  0  0
    4.7478    6.7947    4.0405 C   0  0  0  0  0  0  0  0  0  0  0  0
    4.6390    7.8590    3.2887 N   0  0  0  0  0  0  0  0  0  0  0  0
    5.1461    9.0571    3.7026 C   0  0  0  0  0  0  0  0  0  0  0  0
    5.7563    9.2879    4.8130 N   0  0  0  0  0  0  0  0  0  0  0  0
    5.8684    8.2152    5.6039 N   0  0  0  0  0  0  0  0  0  0  0  0
    6.4510    8.2442    6.8290 C   0  0  0  0  0  0  0  0  0  0  0  0
    6.3403    7.0020    7.4023 C   0  0  0  0  0  0  0  0  0  0  0  0
    6.7609    6.7073    8.6846 N   0  0  0  0  0  0  0  0  0  0  0  0
    7.6982    7.3978    9.4179 C   0  0  0  0  0  0  0  0  0  0  0  0
    8.4371    8.2959    9.0552 O   0  0  0  0  0  0  0  0  0  0  0  0
    7.7629    6.8153   10.6547 O   0  0  0  0  0  0  0  0  0  0  0  0
    9.0854    6.5749   11.1505 C   0  0  0  0  0  0  0  0  0  0  0  0
    9.5135    7.5197   12.2685 C   0  0  0  0  0  0  0  0  0  0  0  0
   10.8939    7.1236   12.8398 C   0  0  0  0  0  0  0  0  0  0  0  0
   11.9776    7.0893   11.8380 N   0  0  0  0  0  0  0  0  0  0  0  0
   12.2312    8.4264   11.2777 C   0  0  0  0  0  0  0  0  0  0  0  0
   13.3300    8.4032   10.2154 C   0  0  0  0  0  0  0  0  0  0  0  0
   14.6174    7.8024   10.7593 C   0  0  0  0  0  0  0  0  0  0  0  0
   14.3360    6.4412   11.3827 C   0  0  0  0  0  0  0  0  0  0  0  0
   13.2115    6.5266   12.4200 C   0  0  0  0  0  0  0  0  0  0  0  0
    5.6645    6.1476    6.4466 C   0  0  0  0  0  0  0  0  0  0  0  0
    5.3487    4.6715    6.6301 C   0  0  0  0  0  0  0  0  0  0  0  0
    6.6036    3.8290    6.8892 C   0  0  0  0  0  0  0  0  0  0  0  0
    4.3045    4.3992    7.7154 C   0  0  0  0  0  0  0  0  0  0  0  0
    5.4030    6.9541    5.3260 C   0  0  0  0  0  0  0  0  0  0  0  0
    3.0459    4.3462    1.8326 C   0  0  0  0  0  0  0  0  0  0  0  0
    4.0300    3.4348    1.8224 F   0  0  0  0  0  0  0  0  0  0  0  0
    1.9614    4.1640    0.9737 C   0  0  0  0  0  0  0  0  0  0  0  0
    0.9290    5.0930    0.9770 C   0  0  0  0  0  0  0  0  0  0  0  0
   -0.1168    4.8946    0.1605 F   0  0  0  0  0  0  0  0  0  0  0  0
   -2.4922   10.1599    0.5510 H   0  0  0  0  0  0  0  0  0  0  0  0
   -1.2372    9.5365   -0.5454 H   0  0  0  0  0  0  0  0  0  0  0  0
   -0.8478    9.8974    1.1676 H   0  0  0  0  0  0  0  0  0  0  0  0
   -0.9259    6.6175    0.0394 H   0  0  0  0  0  0  0  0  0  0  0  0
    2.1174    7.2590    3.3069 H   0  0  0  0  0  0  0  0  0  0  0  0
    4.7282    4.7450    3.7879 H   0  0  0  0  0  0  0  0  0  0  0  0
    5.0186    9.9012    3.0031 H   0  0  0  0  0  0  0  0  0  0  0  0
    6.8592    9.1722    7.2074 H   0  0  0  0  0  0  0  0  0  0  0  0
    6.4614    5.8402    9.1022 H   0  0  0  0  0  0  0  0  0  0  0  0
    9.8080    6.5665   10.3260 H   0  0  0  0  0  0  0  0  0  0  0  0
    9.0506    5.5557   11.5512 H   0  0  0  0  0  0  0  0  0  0  0  0
    8.7732    7.4920   13.0777 H   0  0  0  0  0  0  0  0  0  0  0  0
    9.5104    8.5583   11.9188 H   0  0  0  0  0  0  0  0  0  0  0  0
   10.7884    6.1220   13.2816 H   0  0  0  0  0  0  0  0  0  0  0  0
   11.1528    7.7961   13.6656 H   0  0  0  0  0  0  0  0  0  0  0  0
   12.5020    9.1320   12.0743 H   0  0  0  0  0  0  0  0  0  0  0  0
   11.3309    8.8127   10.7893 H   0  0  0  0  0  0  0  0  0  0  0  0
   13.5174    9.4228    9.8604 H   0  0  0  0  0  0  0  0  0  0  0  0
   12.9899    7.8201    9.3501 H   0  0  0  0  0  0  0  0  0  0  0  0
   15.0458    8.4722   11.5150 H   0  0  0  0  0  0  0  0  0  0  0  0
   15.3562    7.7075    9.9560 H   0  0  0  0  0  0  0  0  0  0  0  0
   15.2491    6.0566   11.8517 H   0  0  0  0  0  0  0  0  0  0  0  0
   14.0585    5.7291   10.5948 H   0  0  0  0  0  0  0  0  0  0  0  0
   13.5491    7.1287   13.2739 H   0  0  0  0  0  0  0  0  0  0  0  0
   13.0207    5.5127   12.7922 H   0  0  0  0  0  0  0  0  0  0  0  0
    4.9175    4.2893    5.7017 H   0  0  0  0  0  0  0  0  0  0  0  0
    7.0831    4.0844    7.8393 H   0  0  0  0  0  0  0  0  0  0  0  0
    7.3431    3.9675    6.0936 H   0  0  0  0  0  0  0  0  0  0  0  0
    6.3512    2.7631    6.9309 H   0  0  0  0  0  0  0  0  0  0  0  0
    4.6886    4.6066    8.7189 H   0  0  0  0  0  0  0  0  0  0  0  0
    4.0043    3.3452    7.6957 H   0  0  0  0  0  0  0  0  0  0  0  0
    3.4037    5.0034    7.5644 H   0  0  0  0  0  0  0  0  0  0  0  0
    1.9186    3.3043    0.3149 H   0  0  0  0  0  0  0  0  0  0  0  0
  1  2  1  0  0  0  0
  1 40  1  0  0  0  0
  1 41  1  0  0  0  0
  1 42  1  0  0  0  0
  2  3  1  0  0  0  0
  3  4  1  0  0  0  0
  3 43  1  0  0  0  0
  4  5  2  0  0  0  0
  4  6  1  0  0  0  0
  6  7  1  0  0  0  0
  6 38  2  0  0  0  0
  7  8  2  0  0  0  0
  7 44  1  0  0  0  0
  8  9  1  0  0  0  0
  8 35  1  0  0  0  0
  9 10  1  0  0  0  0
  9 45  1  0  0  0  0
 10 11  2  0  0  0  0
 10 34  1  0  0  0  0
 11 12  1  0  0  0  0
 12 13  2  0  0  0  0
 12 46  1  0  0  0  0
 13 14  1  0  0  0  0
 14 15  1  0  0  0  0
 14 34  1  0  0  0  0
 15 16  2  0  0  0  0
 15 47  1  0  0  0  0
 16 17  1  0  0  0  0
 16 30  1  0  0  0  0
 17 18  1  0  0  0  0
 17 48  1  0  0  0  0
 18 19  2  0  0  0  0
 18 20  1  0  0  0  0
 20 21  1  0  0  0  0
 21 22  1  0  0  0  0
 21 49  1  0  0  0  0
 21 50  1  0  0  0  0
 22 23  1  0  0  0  0
 22 51  1  0  0  0  0
 22 52  1  0  0  0  0
 23 24  1  0  0  0  0
 23 53  1  0  0  0  0
 23 54  1  0  0  0  0
 24 25  1  0  0  0  0
 24 29  1  0  0  0  0
 25 26  1  0  0  0  0
 25 55  1  0  0  0  0
 25 56  1  0  0  0  0
 26 27  1  0  0  0  0
 26 57  1  0  0  0  0
 26 58  1  0  0  0  0
 27 28  1  0  0  0  0
 27 59  1  0  0  0  0
 27 60  1  0  0  0  0
 28 29  1  0  0  0  0
 28 61  1  0  0  0  0
 28 62  1  0  0  0  0
 29 63  1  0  0  0  0
 29 64  1  0  0  0  0
 30 31  1  0  0  0  0
 30 34  2  0  0  0  0
 31 32  1  0  0  0  0
 31 33  1  0  0  0  0
 31 65  1  0  0  0  0
 32 66  1  0  0  0  0
 32 67  1  0  0  0  0
 32 68  1  0  0  0  0
 33 69  1  0  0  0  0
 33 70  1  0  0  0  0
 33 71  1  0  0  0  0
 35 36  1  0  0  0  0
 35 37  2  0  0  0  0
 37 38  1  0  0  0  0
 37 72  1  0  0  0  0
 38 39  1  0  0  0  0
M  END
$$$$
