CHEMBL3955745
 OpenBabel04072215373D

 50 53  0  0  0  0  0  0  0  0999 V2000
    0.8274    0.5053   -2.2823 H   0  0  0  0  0  0  0  0  0  0  0  0
    1.8469    0.1957   -1.9714 C   0  0  0  0  0  0  0  0  0  0  0  0
    1.7603   -0.4361   -1.0615 H   0  0  0  0  0  0  0  0  0  0  0  0
    2.3070   -0.3851   -2.7983 H   0  0  0  0  0  0  0  0  0  0  0  0
    2.5965    1.3210   -1.6966 O   0  0  0  0  0  0  0  0  0  0  0  0
    3.8920    1.3368   -1.2826 C   0  0  0  0  0  0  0  0  0  0  0  0
    4.6614    0.1706   -1.1492 C   0  0  0  0  0  0  0  0  0  0  0  0
    5.9895    0.2526   -0.7257 C   0  0  0  0  0  0  0  0  0  0  0  0
    6.7221   -0.8817   -0.6037 F   0  0  0  0  0  0  0  0  0  0  0  0
    6.5658    1.4931   -0.4206 C   0  0  0  0  0  0  0  0  0  0  0  0
    5.8119    2.6829   -0.5255 C   0  0  0  0  0  0  0  0  0  0  0  0
    6.3680    3.9867   -0.2187 N   0  0  0  0  0  0  0  0  0  0  0  0
    7.7946    4.2688   -0.4371 C   0  0  0  0  0  0  0  0  0  0  0  0
    8.4972    4.8066    0.8284 C   0  0  0  0  0  0  0  0  0  0  0  0
    8.4960    3.8267    1.9084 N   0  0  0  0  0  0  0  0  0  0  0  0
    5.5078    5.0468    0.2561 C   0  0  0  0  0  0  0  0  0  0  0  0
    5.7755    6.4056   -0.0265 C   0  0  0  0  0  0  0  0  0  0  0  0
    4.9418    7.4178    0.4570 C   0  0  0  0  0  0  0  0  0  0  0  0
    3.8340    7.0941    1.2399 C   0  0  0  0  0  0  0  0  0  0  0  0
    3.0159    8.0665    1.7163 N   0  0  0  0  0  0  0  0  0  0  0  0
    1.9353    7.7633    2.4826 C   0  0  0  0  0  0  0  0  0  0  0  0
    1.6581    6.4212    2.7973 C   0  0  0  0  0  0  0  0  0  0  0  0
    0.4953    6.0452    3.6247 C   0  0  0  0  0  0  0  0  0  0  0  0
    0.1487    4.7699    4.0381 C   0  0  0  0  0  0  0  0  0  0  0  0
   -0.9785    4.8389    4.7752 N   0  0  0  0  0  0  0  0  0  0  0  0
   -1.3447    6.1106    4.8310 N   0  0  0  0  0  0  0  0  0  0  0  0
   -2.5244    6.5950    5.5322 C   0  0  0  0  0  0  0  0  0  0  0  0
   -0.4756    6.8746    4.1472 C   0  0  0  0  0  0  0  0  0  0  0  0
    2.4832    5.4509    2.3199 N   0  0  0  0  0  0  0  0  0  0  0  0
    3.5584    5.7521    1.5472 C   0  0  0  0  0  0  0  0  0  0  0  0
    4.3859    4.7422    1.0622 C   0  0  0  0  0  0  0  0  0  0  0  0
    4.4725    2.5712   -0.9774 C   0  0  0  0  0  0  0  0  0  0  0  0
    4.2427   -0.8014   -1.3749 H   0  0  0  0  0  0  0  0  0  0  0  0
    7.5906    1.5013   -0.0815 H   0  0  0  0  0  0  0  0  0  0  0  0
    7.8969    5.0269   -1.2396 H   0  0  0  0  0  0  0  0  0  0  0  0
    8.3476    3.3842   -0.8067 H   0  0  0  0  0  0  0  0  0  0  0  0
    8.0271    5.7489    1.1840 H   0  0  0  0  0  0  0  0  0  0  0  0
    9.5493    5.0506    0.5653 H   0  0  0  0  0  0  0  0  0  0  0  0
    7.5166    3.6975    2.2504 H   0  0  0  0  0  0  0  0  0  0  0  0
    9.0500    4.2251    2.7027 H   0  0  0  0  0  0  0  0  0  0  0  0
    6.6201    6.7029   -0.6298 H   0  0  0  0  0  0  0  0  0  0  0  0
    5.1607    8.4512    0.2231 H   0  0  0  0  0  0  0  0  0  0  0  0
    1.3082    8.5658    2.8412 H   0  0  0  0  0  0  0  0  0  0  0  0
    0.6792    3.8518    3.8217 H   0  0  0  0  0  0  0  0  0  0  0  0
   -3.0583    5.7509    6.0169 H   0  0  0  0  0  0  0  0  0  0  0  0
   -3.2088    7.0889    4.8103 H   0  0  0  0  0  0  0  0  0  0  0  0
   -2.2221    7.3278    6.3097 H   0  0  0  0  0  0  0  0  0  0  0  0
   -0.5537    7.9481    4.0402 H   0  0  0  0  0  0  0  0  0  0  0  0
    4.1588    3.7190    1.3334 H   0  0  0  0  0  0  0  0  0  0  0  0
    3.8614    3.4541   -1.1105 H   0  0  0  0  0  0  0  0  0  0  0  0
  1  2  1  0  0  0  0
  2  3  1  0  0  0  0
  2  4  1  0  0  0  0
  2  5  1  0  0  0  0
  5  6  1  0  0  0  0
  6  7  1  0  0  0  0
  6 32  2  0  0  0  0
  7  8  2  0  0  0  0
  7 33  1  0  0  0  0
  8  9  1  0  0  0  0
  8 10  1  0  0  0  0
 10 11  2  0  0  0  0
 10 34  1  0  0  0  0
 11 12  1  0  0  0  0
 11 32  1  0  0  0  0
 12 13  1  0  0  0  0
 12 16  1  0  0  0  0
 13 14  1  0  0  0  0
 13 35  1  0  0  0  0
 13 36  1  0  0  0  0
 14 15  1  0  0  0  0
 14 37  1  0  0  0  0
 14 38  1  0  0  0  0
 15 39  1  0  0  0  0
 15 40  1  0  0  0  0
 16 17  1  0  0  0  0
 16 31  2  0  0  0  0
 17 18  2  0  0  0  0
 17 41  1  0  0  0  0
 18 19  1  0  0  0  0
 18 42  1  0  0  0  0
 19 20  1  0  0  0  0
 19 30  2  0  0  0  0
 20 21  2  0  0  0  0
 21 22  1  0  0  0  0
 21 43  1  0  0  0  0
 22 23  1  0  0  0  0
 22 29  2  0  0  0  0
 23 24  1  0  0  0  0
 23 28  2  0  0  0  0
 24 25  2  0  0  0  0
 24 44  1  0  0  0  0
 25 26  1  0  0  0  0
 26 27  1  0  0  0  0
 26 28  1  0  0  0  0
 27 45  1  0  0  0  0
 27 46  1  0  0  0  0
 27 47  1  0  0  0  0
 28 48  1  0  0  0  0
 29 30  1  0  0  0  0
 30 31  1  0  0  0  0
 31 49  1  0  0  0  0
 32 50  1  0  0  0  0
M  ISO  3   1   2   3   2   4   2
M  END
$$$$
