CHEMBL1968850
 OpenBabel04072215363D

 24 26  0  0  0  0  0  0  0  0999 V2000
    1.2728    0.2524   -0.6969 O   0  0  0  0  0  0  0  0  0  0  0  0
    2.4287    0.0501   -0.2987 C   0  0  0  0  0  0  0  0  0  0  0  0
    2.9566   -1.1925   -0.5262 N   0  0  0  0  0  0  0  0  0  0  0  0
    3.7949   -1.8600    0.3811 C   0  0  0  0  0  0  0  0  0  0  0  0
    3.4153   -3.1618    0.7355 C   0  0  0  0  0  0  0  0  0  0  0  0
    4.1060   -3.8422    1.7321 C   0  0  0  0  0  0  0  0  0  0  0  0
    5.2132   -3.2503    2.3308 C   0  0  0  0  0  0  0  0  0  0  0  0
    5.6378   -1.9829    1.9220 C   0  0  0  0  0  0  0  0  0  0  0  0
    4.9295   -1.2675    0.9450 C   0  0  0  0  0  0  0  0  0  0  0  0
    5.3369    0.0324    0.6046 N   0  0  0  0  0  0  0  0  0  0  0  0
    4.4988    1.1469    0.6827 C   0  0  0  0  0  0  0  0  0  0  0  0
    5.0890    2.2742    1.1523 N   0  0  0  0  0  0  0  0  0  0  0  0
    4.3557    3.4070    1.4031 N   0  0  0  0  0  0  0  0  0  0  0  0
    3.0338    3.3910    1.1821 C   0  0  0  0  0  0  0  0  0  0  0  0
    2.1976    4.8332    1.5623 Cl  0  0  0  0  0  0  0  0  0  0  0  0
    2.3884    2.2933    0.6727 C   0  0  0  0  0  0  0  0  0  0  0  0
    3.1435    1.1462    0.3872 C   0  0  0  0  0  0  0  0  0  0  0  0
    2.2732   -1.7698   -1.0004 H   0  0  0  0  0  0  0  0  0  0  0  0
    2.5370   -3.6226    0.2904 H   0  0  0  0  0  0  0  0  0  0  0  0
    3.7625   -4.8198    2.0555 H   0  0  0  0  0  0  0  0  0  0  0  0
    5.7412   -3.7711    3.1242 H   0  0  0  0  0  0  0  0  0  0  0  0
    6.5063   -1.5425    2.4064 H   0  0  0  0  0  0  0  0  0  0  0  0
    6.2533    0.2950    0.9591 H   0  0  0  0  0  0  0  0  0  0  0  0
    1.3195    2.3226    0.4890 H   0  0  0  0  0  0  0  0  0  0  0  0
  1  2  2  0  0  0  0
  2  3  1  0  0  0  0
  2 17  1  0  0  0  0
  3  4  1  0  0  0  0
  3 18  1  0  0  0  0
  4  5  1  0  0  0  0
  4  9  2  0  0  0  0
  5  6  2  0  0  0  0
  5 19  1  0  0  0  0
  6  7  1  0  0  0  0
  6 20  1  0  0  0  0
  7  8  2  0  0  0  0
  7 21  1  0  0  0  0
  8  9  1  0  0  0  0
  8 22  1  0  0  0  0
  9 10  1  0  0  0  0
 10 11  1  0  0  0  0
 10 23  1  0  0  0  0
 11 12  1  0  0  0  0
 11 17  2  0  0  0  0
 12 13  2  0  0  0  0
 13 14  1  0  0  0  0
 14 15  1  0  0  0  0
 14 16  2  0  0  0  0
 16 17  1  0  0  0  0
 16 24  1  0  0  0  0
M  END
$$$$
