CHEMBL2031912
 OpenBabel04072215363D

 68 73  0  0  1  0  0  0  0  0999 V2000
    6.3383    1.4949   -0.5343 C   0  0  0  0  0  0  0  0  0  0  0  0
    7.3425    1.5637   -1.5485 O   0  0  0  0  0  0  0  0  0  0  0  0
    7.1003    0.7630   -2.6316 C   0  0  0  0  0  0  0  0  0  0  0  0
    5.8311    0.3828   -3.0391 C   0  0  0  0  0  0  0  0  0  0  0  0
    5.6850   -0.4755   -4.1203 C   0  0  0  0  0  0  0  0  0  0  0  0
    6.7870   -0.8654   -4.9058 C   0  0  0  0  0  0  0  0  0  0  0  0
    6.6810   -1.5900   -6.1175 C   0  0  0  0  0  0  0  0  0  0  0  0
    5.4894   -1.9864   -6.7095 O   0  0  0  0  0  0  0  0  0  0  0  0
    4.4469   -1.0981   -6.8921 C   0  0  0  0  0  0  0  0  0  0  0  0
    4.5807    0.2925   -6.8715 C   0  0  0  0  0  0  0  0  0  0  0  0
    3.4451    1.1227   -6.9026 C   0  0  0  0  0  0  0  0  0  0  0  0
    2.1566    0.6152   -7.0550 C   0  0  0  0  0  0  0  0  0  0  0  0
    0.9939    1.4381   -7.1206 N   0  0  0  0  0  0  0  0  0  0  0  0
    0.9237    2.8048   -6.8381 C   0  0  0  0  0  0  0  0  0  0  0  0
    1.8312    3.4605   -6.3333 O   0  0  0  0  0  0  0  0  0  0  0  0
   -0.3549    3.4915   -7.2159 C   0  0  0  0  0  0  0  0  0  0  0  0
   -0.6929    4.8185   -7.2307 C   0  0  0  0  0  0  0  0  0  0  0  0
    0.1918    5.9597   -6.7115 C   0  0  3  0  0  0  0  0  0  0  0  0
   -0.4338    7.2070   -6.0952 C   0  0  0  0  0  0  0  0  0  0  0  0
   -0.4141    8.2524   -7.1987 C   0  0  0  0  0  0  0  0  0  0  0  0
    0.5522    7.8437   -8.1659 O   0  0  0  0  0  0  0  0  0  0  0  0
    1.1010    6.5771   -7.7738 C   0  0  0  0  0  0  0  0  0  0  0  0
   -1.9431    5.0030   -7.8523 N   0  0  0  0  0  0  0  0  0  0  0  0
   -2.9224    6.0733   -7.7559 C   0  0  0  0  0  0  0  0  0  0  0  0
   -2.4296    3.7261   -8.1956 N   0  0  0  0  0  0  0  0  0  0  0  0
   -3.7461    3.5259   -8.6323 C   0  0  0  0  0  0  0  0  0  0  0  0
   -4.7051    2.9507   -7.7947 C   0  0  0  0  0  0  0  0  0  0  0  0
   -6.0186    2.8027   -8.2463 C   0  0  0  0  0  0  0  0  0  0  0  0
   -6.3631    3.1967   -9.5405 C   0  0  0  0  0  0  0  0  0  0  0  0
   -5.4067    3.7745  -10.3745 C   0  0  0  0  0  0  0  0  0  0  0  0
   -4.1045    3.9586   -9.9133 C   0  0  0  0  0  0  0  0  0  0  0  0
   -1.5546    2.7668   -7.7198 C   0  0  0  0  0  0  0  0  0  0  0  0
   -1.6629    1.5491   -7.7168 O   0  0  0  0  0  0  0  0  0  0  0  0
    2.0302   -0.7875   -7.1819 C   0  0  0  0  0  0  0  0  0  0  0  0
    3.1630   -1.6171   -7.0823 C   0  0  0  0  0  0  0  0  0  0  0  0
    2.9853   -2.9507   -7.1460 F   0  0  0  0  0  0  0  0  0  0  0  0
    7.8429   -2.0066   -6.7723 C   0  0  0  0  0  0  0  0  0  0  0  0
    9.0574   -1.6284   -6.2436 C   0  0  0  0  0  0  0  0  0  0  0  0
    9.1931   -0.8656   -5.1376 N   0  0  0  0  0  0  0  0  0  0  0  0
    8.0829   -0.4807   -4.4842 C   0  0  0  0  0  0  0  0  0  0  0  0
    8.2122    0.3242   -3.3548 C   0  0  0  0  0  0  0  0  0  0  0  0
    6.6980    2.0375    0.3440 H   0  0  0  0  0  0  0  0  0  0  0  0
    6.1543    0.4554   -0.2388 H   0  0  0  0  0  0  0  0  0  0  0  0
    5.4104    1.9775   -0.8592 H   0  0  0  0  0  0  0  0  0  0  0  0
    4.9303    0.7460   -2.5538 H   0  0  0  0  0  0  0  0  0  0  0  0
    4.6774   -0.7998   -4.3619 H   0  0  0  0  0  0  0  0  0  0  0  0
    5.5470    0.7632   -6.7619 H   0  0  0  0  0  0  0  0  0  0  0  0
    3.6195    2.1900   -6.8045 H   0  0  0  0  0  0  0  0  0  0  0  0
    0.1278    0.9765   -7.4063 H   0  0  0  0  0  0  0  0  0  0  0  0
    0.8207    5.5259   -5.9257 H   0  0  0  0  0  0  0  0  0  0  0  0
    0.2196    7.5708   -5.2907 H   0  0  0  0  0  0  0  0  0  0  0  0
   -1.4052    7.0563   -5.6177 H   0  0  0  0  0  0  0  0  0  0  0  0
   -0.1588    9.2458   -6.8143 H   0  0  0  0  0  0  0  0  0  0  0  0
   -1.3617    8.3699   -7.7286 H   0  0  0  0  0  0  0  0  0  0  0  0
    2.0901    6.7878   -7.3487 H   0  0  0  0  0  0  0  0  0  0  0  0
    1.2398    5.9567   -8.6624 H   0  0  0  0  0  0  0  0  0  0  0  0
   -2.5876    6.9478   -7.2244 H   0  0  0  0  0  0  0  0  0  0  0  0
   -3.8160    5.7551   -7.2084 H   0  0  0  0  0  0  0  0  0  0  0  0
   -3.2109    6.4113   -8.7565 H   0  0  0  0  0  0  0  0  0  0  0  0
   -4.4509    2.6608   -6.7787 H   0  0  0  0  0  0  0  0  0  0  0  0
   -6.7749    2.3780   -7.5907 H   0  0  0  0  0  0  0  0  0  0  0  0
   -7.3787    3.0517   -9.9010 H   0  0  0  0  0  0  0  0  0  0  0  0
   -5.6720    4.0756  -11.3846 H   0  0  0  0  0  0  0  0  0  0  0  0
   -3.3598    4.4132  -10.5622 H   0  0  0  0  0  0  0  0  0  0  0  0
    1.0646   -1.2577   -7.3213 H   0  0  0  0  0  0  0  0  0  0  0  0
    7.7917   -2.6056   -7.6769 H   0  0  0  0  0  0  0  0  0  0  0  0
    9.9898   -1.9286   -6.7111 H   0  0  0  0  0  0  0  0  0  0  0  0
    9.2053    0.6193   -3.0349 H   0  0  0  0  0  0  0  0  0  0  0  0
  1  2  1  0  0  0  0
  1 42  1  0  0  0  0
  1 43  1  0  0  0  0
  1 44  1  0  0  0  0
  2  3  1  0  0  0  0
  3  4  1  0  0  0  0
  3 41  2  0  0  0  0
  4  5  2  0  0  0  0
  4 45  1  0  0  0  0
  5  6  1  0  0  0  0
  5 46  1  0  0  0  0
  6  7  1  0  0  0  0
  6 40  2  0  0  0  0
  7  8  1  0  0  0  0
  7 37  2  0  0  0  0
  8  9  1  0  0  0  0
  9 10  1  0  0  0  0
  9 35  2  0  0  0  0
 10 11  2  0  0  0  0
 10 47  1  0  0  0  0
 11 12  1  0  0  0  0
 11 48  1  0  0  0  0
 12 13  1  0  0  0  0
 12 34  2  0  0  0  0
 13 14  1  0  0  0  0
 13 49  1  0  0  0  0
 14 15  2  0  0  0  0
 14 16  1  0  0  0  0
 16 17  2  0  0  0  0
 16 32  1  0  0  0  0
 17 18  1  0  0  0  0
 17 23  1  0  0  0  0
 18 19  1  0  0  0  0
 18 22  1  0  0  0  0
 18 50  1  0  0  0  0
 19 20  1  0  0  0  0
 19 51  1  0  0  0  0
 19 52  1  0  0  0  0
 20 21  1  0  0  0  0
 20 53  1  0  0  0  0
 20 54  1  0  0  0  0
 21 22  1  0  0  0  0
 22 55  1  0  0  0  0
 22 56  1  0  0  0  0
 23 24  1  0  0  0  0
 23 25  1  0  0  0  0
 24 57  1  0  0  0  0
 24 58  1  0  0  0  0
 24 59  1  0  0  0  0
 25 26  1  0  0  0  0
 25 32  1  0  0  0  0
 26 27  1  0  0  0  0
 26 31  2  0  0  0  0
 27 28  2  0  0  0  0
 27 60  1  0  0  0  0
 28 29  1  0  0  0  0
 28 61  1  0  0  0  0
 29 30  2  0  0  0  0
 29 62  1  0  0  0  0
 30 31  1  0  0  0  0
 30 63  1  0  0  0  0
 31 64  1  0  0  0  0
 32 33  2  0  0  0  0
 34 35  1  0  0  0  0
 34 65  1  0  0  0  0
 35 36  1  0  0  0  0
 37 38  1  0  0  0  0
 37 66  1  0  0  0  0
 38 39  2  0  0  0  0
 38 67  1  0  0  0  0
 39 40  1  0  0  0  0
 40 41  1  0  0  0  0
 41 68  1  0  0  0  0
M  END
$$$$
