CHEMBL3951360
 OpenBabel04072215373D

 62 65  0  0  0  0  0  0  0  0999 V2000
    1.9810   -1.6816    0.5161 C   0  0  0  0  0  0  0  0  0  0  0  0
    3.1728   -0.9276    0.3136 O   0  0  0  0  0  0  0  0  0  0  0  0
    3.4109    0.1025    1.1842 C   0  0  0  0  0  0  0  0  0  0  0  0
    2.6034    0.4575    2.2553 C   0  0  0  0  0  0  0  0  0  0  0  0
    2.9758    1.5332    3.0501 C   0  0  0  0  0  0  0  0  0  0  0  0
    2.1937    1.8785    4.0828 F   0  0  0  0  0  0  0  0  0  0  0  0
    4.1293    2.2757    2.7941 C   0  0  0  0  0  0  0  0  0  0  0  0
    4.9636    1.9552    1.7166 C   0  0  0  0  0  0  0  0  0  0  0  0
    6.1143    2.7222    1.3843 N   0  0  0  0  0  0  0  0  0  0  0  0
    6.9219    3.2799    2.4989 C   0  0  0  0  0  0  0  0  0  0  0  0
    7.3004    4.7609    2.3175 C   0  0  0  0  0  0  0  0  0  0  0  0
    6.1110    5.7228    2.2951 C   0  0  0  0  0  0  0  0  0  0  0  0
    6.6424    7.0794    2.1126 N   0  0  0  0  0  0  0  0  0  0  0  0
    5.6250    8.1357    2.0692 C   0  0  0  0  0  0  0  0  0  0  0  0
    4.8629    8.2646    3.3878 C   0  0  0  0  0  0  0  0  0  0  0  0
    6.3379    9.4594    1.7658 C   0  0  0  0  0  0  0  0  0  0  0  0
    6.6387    2.8790    0.0748 C   0  0  0  0  0  0  0  0  0  0  0  0
    5.7646    3.0883   -0.9985 C   0  0  0  0  0  0  0  0  0  0  0  0
    6.2478    3.3240   -2.2850 C   0  0  0  0  0  0  0  0  0  0  0  0
    7.6063    3.3759   -2.5393 C   0  0  0  0  0  0  0  0  0  0  0  0
    8.0250    3.6427   -3.7869 N   0  0  0  0  0  0  0  0  0  0  0  0
    9.3647    3.7202   -3.9621 C   0  0  0  0  0  0  0  0  0  0  0  0
   10.2761    3.5404   -2.9320 C   0  0  0  0  0  0  0  0  0  0  0  0
   11.7047    3.6855   -3.1559 C   0  0  0  0  0  0  0  0  0  0  0  0
   12.4279    4.0085   -4.3250 C   0  0  0  0  0  0  0  0  0  0  0  0
   13.7469    4.0730   -4.1228 N   0  0  0  0  0  0  0  0  0  0  0  0
   13.8771    3.7958   -2.8147 N   0  0  0  0  0  0  0  0  0  0  0  0
   15.1857    3.7921   -2.2081 C   0  0  0  0  0  0  0  0  0  0  0  0
   12.6889    3.5517   -2.1920 C   0  0  0  0  0  0  0  0  0  0  0  0
    9.8558    3.2489   -1.6756 N   0  0  0  0  0  0  0  0  0  0  0  0
    8.5193    3.1662   -1.4794 C   0  0  0  0  0  0  0  0  0  0  0  0
    8.0163    2.8966   -0.2087 C   0  0  0  0  0  0  0  0  0  0  0  0
    4.5782    0.8433    0.9318 C   0  0  0  0  0  0  0  0  0  0  0  0
    1.9437   -2.4666   -0.2458 H   0  0  0  0  0  0  0  0  0  0  0  0
    1.0912   -1.0550    0.3915 H   0  0  0  0  0  0  0  0  0  0  0  0
    1.9840   -2.1713    1.4957 H   0  0  0  0  0  0  0  0  0  0  0  0
    1.6874   -0.0654    2.5008 H   0  0  0  0  0  0  0  0  0  0  0  0
    4.3218    3.1269    3.4367 H   0  0  0  0  0  0  0  0  0  0  0  0
    7.8412    2.6885    2.6005 H   0  0  0  0  0  0  0  0  0  0  0  0
    6.4308    3.1745    3.4720 H   0  0  0  0  0  0  0  0  0  0  0  0
    7.8944    4.9067    1.4094 H   0  0  0  0  0  0  0  0  0  0  0  0
    7.9644    5.0380    3.1472 H   0  0  0  0  0  0  0  0  0  0  0  0
    5.5774    5.6363    3.2465 H   0  0  0  0  0  0  0  0  0  0  0  0
    5.4201    5.4731    1.4828 H   0  0  0  0  0  0  0  0  0  0  0  0
    7.1753    7.1055    1.2408 H   0  0  0  0  0  0  0  0  0  0  0  0
    4.9165    7.9369    1.2558 H   0  0  0  0  0  0  0  0  0  0  0  0
    5.5482    8.4097    4.2305 H   0  0  0  0  0  0  0  0  0  0  0  0
    4.2543    7.3782    3.5904 H   0  0  0  0  0  0  0  0  0  0  0  0
    4.1821    9.1221    3.3584 H   0  0  0  0  0  0  0  0  0  0  0  0
    7.0639    9.7120    2.5480 H   0  0  0  0  0  0  0  0  0  0  0  0
    5.6185   10.2831    1.7004 H   0  0  0  0  0  0  0  0  0  0  0  0
    6.8744    9.4144    0.8112 H   0  0  0  0  0  0  0  0  0  0  0  0
    4.6888    3.1057   -0.8357 H   0  0  0  0  0  0  0  0  0  0  0  0
    5.5470    3.4967   -3.0973 H   0  0  0  0  0  0  0  0  0  0  0  0
    9.6710    3.9432   -4.9771 H   0  0  0  0  0  0  0  0  0  0  0  0
   12.0577    4.2082   -5.3227 H   0  0  0  0  0  0  0  0  0  0  0  0
   15.9455    3.9448   -2.9796 H   0  0  0  0  0  0  0  0  0  0  0  0
   15.3412    2.8264   -1.7210 H   0  0  0  0  0  0  0  0  0  0  0  0
   15.2271    4.6048   -1.4793 H   0  0  0  0  0  0  0  0  0  0  0  0
   12.6293    3.3184   -1.1381 H   0  0  0  0  0  0  0  0  0  0  0  0
    8.7440    2.7201    0.5785 H   0  0  0  0  0  0  0  0  0  0  0  0
    5.2023    0.5301    0.0959 H   0  0  0  0  0  0  0  0  0  0  0  0
  1  2  1  0  0  0  0
  1 34  1  0  0  0  0
  1 35  1  0  0  0  0
  1 36  1  0  0  0  0
  2  3  1  0  0  0  0
  3  4  1  0  0  0  0
  3 33  2  0  0  0  0
  4  5  2  0  0  0  0
  4 37  1  0  0  0  0
  5  6  1  0  0  0  0
  5  7  1  0  0  0  0
  7  8  2  0  0  0  0
  7 38  1  0  0  0  0
  8  9  1  0  0  0  0
  8 33  1  0  0  0  0
  9 10  1  0  0  0  0
  9 17  1  0  0  0  0
 10 11  1  0  0  0  0
 10 39  1  0  0  0  0
 10 40  1  0  0  0  0
 11 12  1  0  0  0  0
 11 41  1  0  0  0  0
 11 42  1  0  0  0  0
 12 13  1  0  0  0  0
 12 43  1  0  0  0  0
 12 44  1  0  0  0  0
 13 14  1  0  0  0  0
 13 45  1  0  0  0  0
 14 15  1  0  0  0  0
 14 16  1  0  0  0  0
 14 46  1  0  0  0  0
 15 47  1  0  0  0  0
 15 48  1  0  0  0  0
 15 49  1  0  0  0  0
 16 50  1  0  0  0  0
 16 51  1  0  0  0  0
 16 52  1  0  0  0  0
 17 18  1  0  0  0  0
 17 32  2  0  0  0  0
 18 19  2  0  0  0  0
 18 53  1  0  0  0  0
 19 20  1  0  0  0  0
 19 54  1  0  0  0  0
 20 21  1  0  0  0  0
 20 31  2  0  0  0  0
 21 22  2  0  0  0  0
 22 23  1  0  0  0  0
 22 55  1  0  0  0  0
 23 24  1  0  0  0  0
 23 30  2  0  0  0  0
 24 25  1  0  0  0  0
 24 29  2  0  0  0  0
 25 26  2  0  0  0  0
 25 56  1  0  0  0  0
 26 27  1  0  0  0  0
 27 28  1  0  0  0  0
 27 29  1  0  0  0  0
 28 57  1  0  0  0  0
 28 58  1  0  0  0  0
 28 59  1  0  0  0  0
 29 60  1  0  0  0  0
 30 31  1  0  0  0  0
 31 32  1  0  0  0  0
 32 61  1  0  0  0  0
 33 62  1  0  0  0  0
M  END
$$$$
