CHEMBL2208237
 OpenBabel04072215363D

 50 53  0  0  0  0  0  0  0  0999 V2000
   -2.4368   -0.4842    0.5343 C   0  0  0  0  0  0  0  0  0  0  0  0
   -1.0280   -0.2094    0.1564 C   0  0  0  0  0  0  0  0  0  0  0  0
   -0.1100   -1.1004   -0.3633 C   0  0  0  0  0  0  0  0  0  0  0  0
    1.3238   -0.2697   -0.8114 S   0  0  0  0  0  0  0  0  0  0  0  0
    0.6814    1.1768   -0.1441 C   0  0  0  0  0  0  0  0  0  0  0  0
    1.4641    2.4600   -0.0758 C   0  0  0  0  0  0  0  0  0  0  0  0
    2.4500    2.7849   -0.9890 N   0  0  0  0  0  0  0  0  0  0  0  0
    2.8343    4.0052   -0.6782 C   0  0  0  0  0  0  0  0  0  0  0  0
    3.8504    4.8423   -1.3786 C   0  0  0  0  0  0  0  0  0  0  0  0
    3.2173    5.6802   -2.3663 N   0  0  0  0  0  0  0  0  0  0  0  0
    2.5526    6.8190   -2.0250 C   0  0  0  0  0  0  0  0  0  0  0  0
    2.4519    7.2374   -0.8804 O   0  0  0  0  0  0  0  0  0  0  0  0
    1.9823    7.3670   -3.1244 O   0  0  0  0  0  0  0  0  0  0  0  0
    0.9766    8.3644   -2.8765 C   0  0  0  0  0  0  0  0  0  0  0  0
    1.5393    9.7446   -2.5028 C   0  0  0  0  0  0  0  0  0  0  0  0
    2.3694   10.3526   -3.6332 C   0  0  0  0  0  0  0  0  0  0  0  0
    0.3898   10.6821   -2.1284 C   0  0  0  0  0  0  0  0  0  0  0  0
    2.1678    4.4508    0.4389 N   0  0  0  0  0  0  0  0  0  0  0  0
    1.3180    3.4583    0.8856 C   0  0  0  0  0  0  0  0  0  0  0  0
    0.5791    3.5393    2.1577 C   0  0  0  0  0  0  0  0  0  0  0  0
    0.1504    4.7677    2.6722 C   0  0  0  0  0  0  0  0  0  0  0  0
   -0.5220    4.8503    3.9040 C   0  0  0  0  0  0  0  0  0  0  0  0
   -0.7945    3.6825    4.6418 C   0  0  0  0  0  0  0  0  0  0  0  0
   -1.4525    3.6152    5.8606 N   0  0  0  0  0  0  0  0  0  0  0  0
   -1.5275    2.3622    6.2461 C   0  0  0  0  0  0  0  0  0  0  0  0
   -0.8322    1.1971    5.2022 S   0  0  0  0  0  0  0  0  0  0  0  0
   -0.3680    2.4603    4.1252 C   0  0  0  0  0  0  0  0  0  0  0  0
    0.3313    2.3747    2.9083 C   0  0  0  0  0  0  0  0  0  0  0  0
   -0.5472    1.0750    0.3250 N   0  0  0  0  0  0  0  0  0  0  0  0
   -2.6680   -1.5521    0.4796 H   0  0  0  0  0  0  0  0  0  0  0  0
   -3.1110    0.0451   -0.1477 H   0  0  0  0  0  0  0  0  0  0  0  0
   -2.6374   -0.1376    1.5525 H   0  0  0  0  0  0  0  0  0  0  0  0
   -0.2249   -2.1596   -0.5417 H   0  0  0  0  0  0  0  0  0  0  0  0
    4.5748    4.2060   -1.8977 H   0  0  0  0  0  0  0  0  0  0  0  0
    4.3902    5.4749   -0.6660 H   0  0  0  0  0  0  0  0  0  0  0  0
    3.0508    5.3165   -3.2940 H   0  0  0  0  0  0  0  0  0  0  0  0
    0.2951    7.9943   -2.1003 H   0  0  0  0  0  0  0  0  0  0  0  0
    0.3837    8.4420   -3.7957 H   0  0  0  0  0  0  0  0  0  0  0  0
    2.1987    9.6476   -1.6333 H   0  0  0  0  0  0  0  0  0  0  0  0
    1.7673   10.5007   -4.5360 H   0  0  0  0  0  0  0  0  0  0  0  0
    3.2194    9.7128   -3.8887 H   0  0  0  0  0  0  0  0  0  0  0  0
    2.7668   11.3293   -3.3336 H   0  0  0  0  0  0  0  0  0  0  0  0
   -0.2865   10.8413   -2.9755 H   0  0  0  0  0  0  0  0  0  0  0  0
    0.7686   11.6583   -1.8086 H   0  0  0  0  0  0  0  0  0  0  0  0
   -0.1967   10.2655   -1.3023 H   0  0  0  0  0  0  0  0  0  0  0  0
    2.3072    5.3574    0.8661 H   0  0  0  0  0  0  0  0  0  0  0  0
    0.3209    5.6922    2.1257 H   0  0  0  0  0  0  0  0  0  0  0  0
   -0.8407    5.8109    4.2962 H   0  0  0  0  0  0  0  0  0  0  0  0
   -2.0018    2.0716    7.1745 H   0  0  0  0  0  0  0  0  0  0  0  0
    0.6638    1.4004    2.5660 H   0  0  0  0  0  0  0  0  0  0  0  0
  1  2  1  0  0  0  0
  1 30  1  0  0  0  0
  1 31  1  0  0  0  0
  1 32  1  0  0  0  0
  2  3  2  0  0  0  0
  2 29  1  0  0  0  0
  3  4  1  0  0  0  0
  3 33  1  0  0  0  0
  4  5  1  0  0  0  0
  5  6  1  0  0  0  0
  5 29  2  0  0  0  0
  6  7  1  0  0  0  0
  6 19  2  0  0  0  0
  7  8  2  0  0  0  0
  8  9  1  0  0  0  0
  8 18  1  0  0  0  0
  9 10  1  0  0  0  0
  9 34  1  0  0  0  0
  9 35  1  0  0  0  0
 10 11  1  0  0  0  0
 10 36  1  0  0  0  0
 11 12  2  0  0  0  0
 11 13  1  0  0  0  0
 13 14  1  0  0  0  0
 14 15  1  0  0  0  0
 14 37  1  0  0  0  0
 14 38  1  0  0  0  0
 15 16  1  0  0  0  0
 15 17  1  0  0  0  0
 15 39  1  0  0  0  0
 16 40  1  0  0  0  0
 16 41  1  0  0  0  0
 16 42  1  0  0  0  0
 17 43  1  0  0  0  0
 17 44  1  0  0  0  0
 17 45  1  0  0  0  0
 18 19  1  0  0  0  0
 18 46  1  0  0  0  0
 19 20  1  0  0  0  0
 20 21  1  0  0  0  0
 20 28  2  0  0  0  0
 21 22  2  0  0  0  0
 21 47  1  0  0  0  0
 22 23  1  0  0  0  0
 22 48  1  0  0  0  0
 23 24  1  0  0  0  0
 23 27  2  0  0  0  0
 24 25  2  0  0  0  0
 25 26  1  0  0  0  0
 25 49  1  0  0  0  0
 26 27  1  0  0  0  0
 27 28  1  0  0  0  0
 28 50  1  0  0  0  0
M  END
$$$$
