CHEMBL3648072
 OpenBabel04072215373D

 47 48  0  0  1  0  0  0  0  0999 V2000
    3.9277   -0.4459   -0.1700 C   0  0  0  0  0  0  0  0  0  0  0  0
    4.1165    0.7791    0.7433 C   0  0  1  0  0  0  0  0  0  0  0  0
    2.7637    1.2921    0.9822 N   0  0  0  0  0  0  0  0  0  0  0  0
    2.4578    2.6279    0.7106 C   0  0  0  0  0  0  0  0  0  0  0  0
    3.4612    3.5242    0.5754 N   0  0  0  0  0  0  0  0  0  0  0  0
    3.1507    4.7754    0.1997 C   0  0  0  0  0  0  0  0  0  0  0  0
    4.1849    5.7078    0.1435 N   0  0  0  0  0  0  0  0  0  0  0  0
    4.2139    6.9289   -0.5399 C   0  0  0  0  0  0  0  0  0  0  0  0
    4.8238    8.0548    0.0317 C   0  0  0  0  0  0  0  0  0  0  0  0
    4.7447    9.3063   -0.5948 C   0  0  0  0  0  0  0  0  0  0  0  0
    4.0663    9.4315   -1.8083 C   0  0  0  0  0  0  0  0  0  0  0  0
    3.8927   11.0242   -2.5873 S   0  0  3  0  0  0  0  0  0  0  0  0
    4.6994   10.8066   -4.1545 C   0  0  0  0  0  0  0  0  0  0  0  0
    2.3831   11.2075   -2.8429 N   0  0  0  0  0  0  0  0  0  0  0  0
    4.7212   11.9552   -1.8410 O   0  0  0  0  0  0  0  0  0  0  0  0
    3.4697    8.3195   -2.4018 C   0  0  0  0  0  0  0  0  0  0  0  0
    3.5377    7.0865   -1.7583 C   0  0  0  0  0  0  0  0  0  0  0  0
    1.8983    5.1760   -0.0724 N   0  0  0  0  0  0  0  0  0  0  0  0
    0.9113    4.2869    0.1171 C   0  0  0  0  0  0  0  0  0  0  0  0
    1.1304    2.9994    0.5364 C   0  0  0  0  0  0  0  0  0  0  0  0
   -0.3324    1.8312    0.7807 Br  0  0  0  0  0  0  0  0  0  0  0  0
    4.8373    0.4212    2.0856 C   0  0  0  0  0  0  0  0  0  0  0  0
    6.2619   -0.0977    1.8315 C   0  0  0  0  0  0  0  0  0  0  0  0
    4.9285    1.6290    3.0266 C   0  0  0  0  0  0  0  0  0  0  0  0
    4.0994   -0.5911    2.7916 O   0  0  0  0  0  0  0  0  0  0  0  0
    3.4819   -0.1444   -1.1251 H   0  0  0  0  0  0  0  0  0  0  0  0
    3.2513   -1.1837    0.2772 H   0  0  0  0  0  0  0  0  0  0  0  0
    4.8748   -0.9410   -0.3972 H   0  0  0  0  0  0  0  0  0  0  0  0
    4.7321    1.4983    0.1884 H   0  0  0  0  0  0  0  0  0  0  0  0
    2.3373    0.9574    1.8450 H   0  0  0  0  0  0  0  0  0  0  0  0
    4.9829    5.4358    0.6939 H   0  0  0  0  0  0  0  0  0  0  0  0
    5.3193    7.9818    0.9975 H   0  0  0  0  0  0  0  0  0  0  0  0
    5.1890   10.1749   -0.1142 H   0  0  0  0  0  0  0  0  0  0  0  0
    4.1938   10.0314   -4.7324 H   0  0  0  0  0  0  0  0  0  0  0  0
    5.7425   10.5349   -3.9789 H   0  0  0  0  0  0  0  0  0  0  0  0
    4.6560   11.7569   -4.6920 H   0  0  0  0  0  0  0  0  0  0  0  0
    2.0263   10.6557   -3.6208 H   0  0  0  0  0  0  0  0  0  0  0  0
    2.9193    8.3920   -3.3341 H   0  0  0  0  0  0  0  0  0  0  0  0
    3.0467    6.2311   -2.2178 H   0  0  0  0  0  0  0  0  0  0  0  0
   -0.0853    4.6626   -0.0932 H   0  0  0  0  0  0  0  0  0  0  0  0
    6.8512    0.6233    1.2539 H   0  0  0  0  0  0  0  0  0  0  0  0
    6.2619   -1.0538    1.2991 H   0  0  0  0  0  0  0  0  0  0  0  0
    6.7829   -0.2860    2.7771 H   0  0  0  0  0  0  0  0  0  0  0  0
    5.5140    2.4415    2.5851 H   0  0  0  0  0  0  0  0  0  0  0  0
    5.3970    1.3408    3.9756 H   0  0  0  0  0  0  0  0  0  0  0  0
    3.9378    2.0109    3.2923 H   0  0  0  0  0  0  0  0  0  0  0  0
    4.1842   -1.4284    2.3043 H   0  0  0  0  0  0  0  0  0  0  0  0
  1  2  1  0  0  0  0
  1 26  1  0  0  0  0
  1 27  1  0  0  0  0
  1 28  1  0  0  0  0
  2  3  1  0  0  0  0
  2 22  1  0  0  0  0
  2 29  1  6  0  0  0
  3  4  1  0  0  0  0
  3 30  1  0  0  0  0
  4  5  1  0  0  0  0
  4 20  2  0  0  0  0
  5  6  2  0  0  0  0
  6  7  1  0  0  0  0
  6 18  1  0  0  0  0
  7  8  1  0  0  0  0
  7 31  1  0  0  0  0
  8  9  1  0  0  0  0
  8 17  2  0  0  0  0
  9 10  2  0  0  0  0
  9 32  1  0  0  0  0
 10 11  1  0  0  0  0
 10 33  1  0  0  0  0
 11 12  1  0  0  0  0
 11 16  2  0  0  0  0
 12 13  1  0  0  0  0
 12 14  2  0  0  0  0
 12 15  2  0  0  0  0
 13 34  1  0  0  0  0
 13 35  1  0  0  0  0
 13 36  1  0  0  0  0
 14 37  1  0  0  0  0
 16 17  1  0  0  0  0
 16 38  1  0  0  0  0
 17 39  1  0  0  0  0
 18 19  2  0  0  0  0
 19 20  1  0  0  0  0
 19 40  1  0  0  0  0
 20 21  1  0  0  0  0
 22 23  1  0  0  0  0
 22 24  1  0  0  0  0
 22 25  1  0  0  0  0
 23 41  1  0  0  0  0
 23 42  1  0  0  0  0
 23 43  1  0  0  0  0
 24 44  1  0  0  0  0
 24 45  1  0  0  0  0
 24 46  1  0  0  0  0
 25 47  1  0  0  0  0
M  END
$$$$
