CHEMBL3959306
 OpenBabel04072215373D

 46 49  0  0  0  0  0  0  0  0999 V2000
    3.6320   -2.1584   -0.6129 N   0  0  0  0  0  0  0  0  0  0  0  0
    2.4000   -2.0691   -0.0316 C   0  0  0  0  0  0  0  0  0  0  0  0
    1.3805   -1.8817   -0.6842 O   0  0  0  0  0  0  0  0  0  0  0  0
    2.3756   -2.2356    1.4595 C   0  0  0  0  0  0  0  0  0  0  0  0
    2.3687   -0.9443    2.2940 C   0  0  0  0  0  0  0  0  0  0  0  0
    1.1379   -0.2660    2.4422 C   0  0  0  0  0  0  0  0  0  0  0  0
    0.9813    0.8040    3.3207 C   0  0  0  0  0  0  0  0  0  0  0  0
    2.0622    1.2335    4.0757 C   0  0  0  0  0  0  0  0  0  0  0  0
    3.3133    0.6513    3.8848 C   0  0  0  0  0  0  0  0  0  0  0  0
    3.4948   -0.4086    2.9748 C   0  0  0  0  0  0  0  0  0  0  0  0
    4.9181   -0.9005    2.7555 C   0  0  0  0  0  0  0  0  0  0  0  0
    5.6809   -0.0543    1.7237 C   0  0  0  0  0  0  0  0  0  0  0  0
    7.1462   -0.3392    1.4582 C   0  0  0  0  0  0  0  0  0  0  0  0
    7.8532    0.7828    1.1527 N   0  0  0  0  0  0  0  0  0  0  0  0
    9.1405    0.6917    0.7695 C   0  0  0  0  0  0  0  0  0  0  0  0
    9.8219    1.8030    0.2664 N   0  0  0  0  0  0  0  0  0  0  0  0
    9.3125    2.9862   -0.1327 C   0  0  0  0  0  0  0  0  0  0  0  0
    8.0462    3.5602    0.1118 C   0  0  0  0  0  0  0  0  0  0  0  0
    7.8976    4.7419   -0.4961 N   0  0  0  0  0  0  0  0  0  0  0  0
    9.0689    4.9165   -1.1289 N   0  0  0  0  0  0  0  0  0  0  0  0
    9.9583    3.8979   -0.9298 C   0  0  0  0  0  0  0  0  0  0  0  0
    9.8072   -0.4656    0.7426 N   0  0  0  0  0  0  0  0  0  0  0  0
    9.0933   -1.5717    1.0389 C   0  0  0  0  0  0  0  0  0  0  0  0
    7.7505   -1.5794    1.3714 C   0  0  0  0  0  0  0  0  0  0  0  0
    6.9780   -3.0982    1.5505 Cl  0  0  0  0  0  0  0  0  0  0  0  0
    2.9334   -3.5084    2.1021 C   0  0  0  0  0  0  0  0  0  0  0  0
    1.4593   -3.3730    1.9545 C   0  0  0  0  0  0  0  0  0  0  0  0
    3.6860   -2.0448   -1.6190 H   0  0  0  0  0  0  0  0  0  0  0  0
    4.4731   -2.3159   -0.0838 H   0  0  0  0  0  0  0  0  0  0  0  0
    0.2734   -0.6031    1.8689 H   0  0  0  0  0  0  0  0  0  0  0  0
    0.0113    1.2820    3.4264 H   0  0  0  0  0  0  0  0  0  0  0  0
    1.9371    2.0338    4.7999 H   0  0  0  0  0  0  0  0  0  0  0  0
    4.1569    1.0289    4.4594 H   0  0  0  0  0  0  0  0  0  0  0  0
    4.8794   -1.9374    2.4415 H   0  0  0  0  0  0  0  0  0  0  0  0
    5.4534   -0.8995    3.7134 H   0  0  0  0  0  0  0  0  0  0  0  0
    5.6174    0.9950    2.0498 H   0  0  0  0  0  0  0  0  0  0  0  0
    5.1632   -0.0889    0.7578 H   0  0  0  0  0  0  0  0  0  0  0  0
   10.7352    1.4936   -0.0438 H   0  0  0  0  0  0  0  0  0  0  0  0
    7.2248    3.1717    0.6991 H   0  0  0  0  0  0  0  0  0  0  0  0
    9.1885    5.7558   -1.6861 H   0  0  0  0  0  0  0  0  0  0  0  0
   10.9350    3.9126   -1.3892 H   0  0  0  0  0  0  0  0  0  0  0  0
    9.6553   -2.4992    0.9578 H   0  0  0  0  0  0  0  0  0  0  0  0
    3.3178   -3.4664    3.1168 H   0  0  0  0  0  0  0  0  0  0  0  0
    3.4449   -4.2281    1.4740 H   0  0  0  0  0  0  0  0  0  0  0  0
    0.8695   -3.2178    2.8514 H   0  0  0  0  0  0  0  0  0  0  0  0
    0.9688   -4.0035    1.2196 H   0  0  0  0  0  0  0  0  0  0  0  0
  1  2  1  0  0  0  0
  1 28  1  0  0  0  0
  1 29  1  0  0  0  0
  2  3  2  0  0  0  0
  2  4  1  0  0  0  0
  4  5  1  0  0  0  0
  4 26  1  0  0  0  0
  4 27  1  0  0  0  0
  5  6  1  0  0  0  0
  5 10  2  0  0  0  0
  6  7  2  0  0  0  0
  6 30  1  0  0  0  0
  7  8  1  0  0  0  0
  7 31  1  0  0  0  0
  8  9  2  0  0  0  0
  8 32  1  0  0  0  0
  9 10  1  0  0  0  0
  9 33  1  0  0  0  0
 10 11  1  0  0  0  0
 11 12  1  0  0  0  0
 11 34  1  0  0  0  0
 11 35  1  0  0  0  0
 12 13  1  0  0  0  0
 12 36  1  0  0  0  0
 12 37  1  0  0  0  0
 13 14  1  0  0  0  0
 13 24  2  0  0  0  0
 14 15  2  0  0  0  0
 15 16  1  0  0  0  0
 15 22  1  0  0  0  0
 16 17  1  0  0  0  0
 16 38  1  0  0  0  0
 17 18  1  0  0  0  0
 17 21  2  0  0  0  0
 18 19  2  0  0  0  0
 18 39  1  0  0  0  0
 19 20  1  0  0  0  0
 20 21  1  0  0  0  0
 20 40  1  0  0  0  0
 21 41  1  0  0  0  0
 22 23  2  0  0  0  0
 23 24  1  0  0  0  0
 23 42  1  0  0  0  0
 24 25  1  0  0  0  0
 26 27  1  0  0  0  0
 26 43  1  0  0  0  0
 26 44  1  0  0  0  0
 27 45  1  0  0  0  0
 27 46  1  0  0  0  0
M  END
$$$$
