CHEMBL3944994
 OpenBabel04072215373D

 54 57  0  0  0  0  0  0  0  0999 V2000
    6.4153    2.5376   -6.6365 C   0  0  0  0  0  0  0  0  0  0  0  0
    4.9780    2.8067   -7.0510 C   0  0  0  0  0  0  0  0  0  0  0  0
    4.9850    3.1833   -8.3624 F   0  0  0  0  0  0  0  0  0  0  0  0
    4.3082    1.6176   -7.0204 F   0  0  0  0  0  0  0  0  0  0  0  0
    4.3226    3.8426   -6.1711 C   0  0  0  0  0  0  0  0  0  0  0  0
    4.4086    5.2030   -6.4810 C   0  0  0  0  0  0  0  0  0  0  0  0
    3.7841    6.1115   -5.6491 C   0  0  0  0  0  0  0  0  0  0  0  0
    3.0963    5.7509   -4.5439 N   0  0  0  0  0  0  0  0  0  0  0  0
    3.0196    4.4347   -4.2440 C   0  0  0  0  0  0  0  0  0  0  0  0
    2.3269    4.0330   -3.1019 N   0  0  0  0  0  0  0  0  0  0  0  0
    1.9172    4.8134   -2.0579 C   0  0  0  0  0  0  0  0  0  0  0  0
    1.3400    4.2768   -1.1121 O   0  0  0  0  0  0  0  0  0  0  0  0
    2.2113    6.1474   -2.1474 N   0  0  0  0  0  0  0  0  0  0  0  0
    1.9504    7.0697   -1.1332 C   0  0  0  0  0  0  0  0  0  0  0  0
    2.3379    6.8069    0.1790 C   0  0  0  0  0  0  0  0  0  0  0  0
    2.0656    7.7339    1.1813 C   0  0  0  0  0  0  0  0  0  0  0  0
    1.4434    8.9473    0.8665 C   0  0  0  0  0  0  0  0  0  0  0  0
    1.1628    9.9259    1.7988 O   0  0  0  0  0  0  0  0  0  0  0  0
    2.0737   10.1696    2.8093 C   0  0  0  0  0  0  0  0  0  0  0  0
    3.4440    9.9582    2.6782 C   0  0  0  0  0  0  0  0  0  0  0  0
    4.2331   10.1594    3.7837 C   0  0  0  0  0  0  0  0  0  0  0  0
    3.7574   10.6196    4.9508 N   0  0  0  0  0  0  0  0  0  0  0  0
    2.4506   10.9068    5.0561 C   0  0  0  0  0  0  0  0  0  0  0  0
    1.9651   11.4329    6.2643 N   0  0  0  0  0  0  0  0  0  0  0  0
    2.7784   11.6696    7.3704 C   0  0  0  0  0  0  0  0  0  0  0  0
    3.9746   11.4538    7.4617 O   0  0  0  0  0  0  0  0  0  0  0  0
    2.0680   12.2381    8.5565 C   0  0  0  0  0  0  0  0  0  0  0  0
    2.8059   13.2105    9.4550 C   0  0  0  0  0  0  0  0  0  0  0  0
    2.5126   11.8225    9.9423 C   0  0  0  0  0  0  0  0  0  0  0  0
    1.5676   10.6923    4.0054 C   0  0  0  0  0  0  0  0  0  0  0  0
    1.0337    9.1950   -0.4464 C   0  0  0  0  0  0  0  0  0  0  0  0
    1.3155    8.2690   -1.4543 C   0  0  0  0  0  0  0  0  0  0  0  0
    3.6101    3.4567   -5.0287 C   0  0  0  0  0  0  0  0  0  0  0  0
    6.8536    1.7796   -7.2942 H   0  0  0  0  0  0  0  0  0  0  0  0
    6.4725    2.1578   -5.6111 H   0  0  0  0  0  0  0  0  0  0  0  0
    7.0320    3.4390   -6.7141 H   0  0  0  0  0  0  0  0  0  0  0  0
    4.9426    5.5525   -7.3594 H   0  0  0  0  0  0  0  0  0  0  0  0
    3.8133    7.1748   -5.8468 H   0  0  0  0  0  0  0  0  0  0  0  0
    2.1402    3.0526   -2.9589 H   0  0  0  0  0  0  0  0  0  0  0  0
    2.2862    6.4790   -3.1069 H   0  0  0  0  0  0  0  0  0  0  0  0
    2.8802    5.8960    0.4230 H   0  0  0  0  0  0  0  0  0  0  0  0
    2.3676    7.5002    2.1980 H   0  0  0  0  0  0  0  0  0  0  0  0
    3.8965    9.6073    1.7596 H   0  0  0  0  0  0  0  0  0  0  0  0
    5.2992    9.9478    3.7709 H   0  0  0  0  0  0  0  0  0  0  0  0
    0.9866   11.6501    6.3267 H   0  0  0  0  0  0  0  0  0  0  0  0
    1.0053   12.4219    8.4322 H   0  0  0  0  0  0  0  0  0  0  0  0
    2.2547   14.0290    9.8993 H   0  0  0  0  0  0  0  0  0  0  0  0
    3.8374   13.4518    9.2143 H   0  0  0  0  0  0  0  0  0  0  0  0
    1.7644   11.7023   10.7146 H   0  0  0  0  0  0  0  0  0  0  0  0
    3.3508   11.1316   10.0289 H   0  0  0  0  0  0  0  0  0  0  0  0
    0.5093   10.9077    4.0944 H   0  0  0  0  0  0  0  0  0  0  0  0
    0.4905   10.1038   -0.6883 H   0  0  0  0  0  0  0  0  0  0  0  0
    0.9824    8.4600   -2.4707 H   0  0  0  0  0  0  0  0  0  0  0  0
    3.5426    2.4076   -4.7561 H   0  0  0  0  0  0  0  0  0  0  0  0
  1  2  1  0  0  0  0
  1 34  1  0  0  0  0
  1 35  1  0  0  0  0
  1 36  1  0  0  0  0
  2  3  1  0  0  0  0
  2  4  1  0  0  0  0
  2  5  1  0  0  0  0
  5  6  1  0  0  0  0
  5 33  2  0  0  0  0
  6  7  2  0  0  0  0
  6 37  1  0  0  0  0
  7  8  1  0  0  0  0
  7 38  1  0  0  0  0
  8  9  2  0  0  0  0
  9 10  1  0  0  0  0
  9 33  1  0  0  0  0
 10 11  1  0  0  0  0
 10 39  1  0  0  0  0
 11 12  2  0  0  0  0
 11 13  1  0  0  0  0
 13 14  1  0  0  0  0
 13 40  1  0  0  0  0
 14 15  1  0  0  0  0
 14 32  2  0  0  0  0
 15 16  2  0  0  0  0
 15 41  1  0  0  0  0
 16 17  1  0  0  0  0
 16 42  1  0  0  0  0
 17 18  1  0  0  0  0
 17 31  2  0  0  0  0
 18 19  1  0  0  0  0
 19 20  1  0  0  0  0
 19 30  2  0  0  0  0
 20 21  2  0  0  0  0
 20 43  1  0  0  0  0
 21 22  1  0  0  0  0
 21 44  1  0  0  0  0
 22 23  2  0  0  0  0
 23 24  1  0  0  0  0
 23 30  1  0  0  0  0
 24 25  1  0  0  0  0
 24 45  1  0  0  0  0
 25 26  2  0  0  0  0
 25 27  1  0  0  0  0
 27 28  1  0  0  0  0
 27 29  1  0  0  0  0
 27 46  1  0  0  0  0
 28 29  1  0  0  0  0
 28 47  1  0  0  0  0
 28 48  1  0  0  0  0
 29 49  1  0  0  0  0
 29 50  1  0  0  0  0
 30 51  1  0  0  0  0
 31 32  1  0  0  0  0
 31 52  1  0  0  0  0
 32 53  1  0  0  0  0
 33 54  1  0  0  0  0
M  END
$$$$
