CHEMBL3810154
 OpenBabel04072215373D

 52 56  0  0  0  0  0  0  0  0999 V2000
   -0.4622    0.8428    2.4815 C   0  0  0  0  0  0  0  0  0  0  0  0
   -0.0874    0.1630    1.1508 C   0  0  0  0  0  0  0  0  0  0  0  0
   -1.3691   -0.2229    0.3925 C   0  0  0  0  0  0  0  0  0  0  0  0
    0.6960    1.1757    0.2934 C   0  0  0  0  0  0  0  0  0  0  0  0
    0.7176   -1.0716    1.4622 C   0  0  0  0  0  0  0  0  0  0  0  0
    0.4685   -2.2082    2.2010 C   0  0  0  0  0  0  0  0  0  0  0  0
    1.6899   -2.9200    2.2076 C   0  0  0  0  0  0  0  0  0  0  0  0
    1.9098   -4.0955    2.9090 N   0  0  0  0  0  0  0  0  0  0  0  0
    3.0091   -4.8843    2.6965 C   0  0  0  0  0  0  0  0  0  0  0  0
    3.9328   -4.7495    1.8962 O   0  0  0  0  0  0  0  0  0  0  0  0
    2.9450   -6.0900    3.4179 N   0  0  0  0  0  0  0  0  0  0  0  0
    3.4237   -7.2920    2.9148 C   0  0  0  0  0  0  0  0  0  0  0  0
    3.2390   -8.2917    3.8460 C   0  0  0  0  0  0  0  0  0  0  0  0
    2.6974   -7.6805    5.0028 C   0  0  0  0  0  0  0  0  0  0  0  0
    2.3995   -8.1413    6.2925 C   0  0  0  0  0  0  0  0  0  0  0  0
    1.9697   -7.2186    7.2403 C   0  0  0  0  0  0  0  0  0  0  0  0
    1.7544   -7.7181    8.5058 O   0  0  0  0  0  0  0  0  0  0  0  0
    1.7727   -6.8178    9.5499 C   0  0  0  0  0  0  0  0  0  0  0  0
    2.7988   -5.9464    9.6368 N   0  0  0  0  0  0  0  0  0  0  0  0
    2.6439   -4.9374   10.5163 C   0  0  0  0  0  0  0  0  0  0  0  0
    1.5563   -4.6985   11.2686 N   0  0  0  0  0  0  0  0  0  0  0  0
    0.6025   -5.6307   11.1561 C   0  0  0  0  0  0  0  0  0  0  0  0
    0.6822   -6.7452   10.3586 C   0  0  0  0  0  0  0  0  0  0  0  0
   -0.5673   -7.5277   10.4589 C   0  0  0  0  0  0  0  0  0  0  0  0
   -1.5855   -6.5164   10.8436 N   0  0  0  0  0  0  0  0  0  0  0  0
   -0.8151   -5.5258   11.6628 C   0  0  0  0  0  0  0  0  0  0  0  0
    1.7588   -5.9022    6.8178 C   0  0  0  0  0  0  0  0  0  0  0  0
    1.9623   -5.4095    5.5550 N   0  0  0  0  0  0  0  0  0  0  0  0
    2.4712   -6.3323    4.7093 C   0  0  0  0  0  0  0  0  0  0  0  0
    2.5944   -2.2889    1.4512 N   0  0  0  0  0  0  0  0  0  0  0  0
    1.9957   -1.1326    1.0019 O   0  0  0  0  0  0  0  0  0  0  0  0
   -1.0728    1.7368    2.3174 H   0  0  0  0  0  0  0  0  0  0  0  0
    0.4362    1.1456    3.0336 H   0  0  0  0  0  0  0  0  0  0  0  0
   -1.0304    0.1670    3.1316 H   0  0  0  0  0  0  0  0  0  0  0  0
   -1.9967    0.6564    0.2048 H   0  0  0  0  0  0  0  0  0  0  0  0
   -1.9723   -0.9442    0.9553 H   0  0  0  0  0  0  0  0  0  0  0  0
   -1.1350   -0.6768   -0.5779 H   0  0  0  0  0  0  0  0  0  0  0  0
    0.0986    2.0758    0.1037 H   0  0  0  0  0  0  0  0  0  0  0  0
    0.9711    0.7526   -0.6801 H   0  0  0  0  0  0  0  0  0  0  0  0
    1.6205    1.4952    0.7887 H   0  0  0  0  0  0  0  0  0  0  0  0
   -0.4585   -2.4635    2.6901 H   0  0  0  0  0  0  0  0  0  0  0  0
    1.1739   -4.4151    3.5289 H   0  0  0  0  0  0  0  0  0  0  0  0
    3.8361   -7.3248    1.9169 H   0  0  0  0  0  0  0  0  0  0  0  0
    3.5062   -9.3279    3.7195 H   0  0  0  0  0  0  0  0  0  0  0  0
    2.5577   -9.1825    6.5644 H   0  0  0  0  0  0  0  0  0  0  0  0
    3.4612   -4.2275   10.5898 H   0  0  0  0  0  0  0  0  0  0  0  0
   -0.4875   -8.2684   11.2660 H   0  0  0  0  0  0  0  0  0  0  0  0
   -0.8408   -8.0428    9.5350 H   0  0  0  0  0  0  0  0  0  0  0  0
   -1.8429   -6.0325    9.9788 H   0  0  0  0  0  0  0  0  0  0  0  0
   -0.8734   -5.7965   12.7207 H   0  0  0  0  0  0  0  0  0  0  0  0
   -1.2138   -4.5189   11.5086 H   0  0  0  0  0  0  0  0  0  0  0  0
    1.4099   -5.1451    7.5086 H   0  0  0  0  0  0  0  0  0  0  0  0
  1  2  1  0  0  0  0
  1 32  1  0  0  0  0
  1 33  1  0  0  0  0
  1 34  1  0  0  0  0
  2  3  1  0  0  0  0
  2  4  1  0  0  0  0
  2  5  1  0  0  0  0
  3 35  1  0  0  0  0
  3 36  1  0  0  0  0
  3 37  1  0  0  0  0
  4 38  1  0  0  0  0
  4 39  1  0  0  0  0
  4 40  1  0  0  0  0
  5  6  2  0  0  0  0
  5 31  1  0  0  0  0
  6  7  1  0  0  0  0
  6 41  1  0  0  0  0
  7  8  1  0  0  0  0
  7 30  2  0  0  0  0
  8  9  1  0  0  0  0
  8 42  1  0  0  0  0
  9 10  2  0  0  0  0
  9 11  1  0  0  0  0
 11 12  1  0  0  0  0
 11 29  1  0  0  0  0
 12 13  2  0  0  0  0
 12 43  1  0  0  0  0
 13 14  1  0  0  0  0
 13 44  1  0  0  0  0
 14 15  1  0  0  0  0
 14 29  2  0  0  0  0
 15 16  2  0  0  0  0
 15 45  1  0  0  0  0
 16 17  1  0  0  0  0
 16 27  1  0  0  0  0
 17 18  1  0  0  0  0
 18 19  1  0  0  0  0
 18 23  2  0  0  0  0
 19 20  2  0  0  0  0
 20 21  1  0  0  0  0
 20 46  1  0  0  0  0
 21 22  2  0  0  0  0
 22 23  1  0  0  0  0
 22 26  1  0  0  0  0
 23 24  1  0  0  0  0
 24 25  1  0  0  0  0
 24 47  1  0  0  0  0
 24 48  1  0  0  0  0
 25 26  1  0  0  0  0
 25 49  1  0  0  0  0
 26 50  1  0  0  0  0
 26 51  1  0  0  0  0
 27 28  2  0  0  0  0
 27 52  1  0  0  0  0
 28 29  1  0  0  0  0
 30 31  1  0  0  0  0
M  END
$$$$
