CHEMBL3972921
 OpenBabel04072215373D

 52 55  0  0  0  0  0  0  0  0999 V2000
    2.5845   -0.3212   -1.3336 O   0  0  0  0  0  0  0  0  0  0  0  0
    2.2390    0.3208   -0.3482 C   0  0  0  0  0  0  0  0  0  0  0  0
    0.9186    0.5251    0.0175 N   0  0  0  0  0  0  0  0  0  0  0  0
   -0.2095    0.0460   -0.6917 C   0  0  0  0  0  0  0  0  0  0  0  0
   -0.1377   -0.9508   -1.6700 C   0  0  0  0  0  0  0  0  0  0  0  0
   -1.2700   -1.3393   -2.3860 C   0  0  0  0  0  0  0  0  0  0  0  0
   -2.4993   -0.7490   -2.1177 C   0  0  0  0  0  0  0  0  0  0  0  0
   -2.6092    0.2257   -1.1166 C   0  0  0  0  0  0  0  0  0  0  0  0
   -3.9422    0.8566   -0.8038 C   0  0  0  0  0  0  0  0  0  0  0  0
   -4.9651    0.3817   -1.5683 F   0  0  0  0  0  0  0  0  0  0  0  0
   -4.3186    0.6555    0.4891 F   0  0  0  0  0  0  0  0  0  0  0  0
   -3.9360    2.2059   -0.9850 F   0  0  0  0  0  0  0  0  0  0  0  0
   -1.4564    0.6134   -0.4046 C   0  0  0  0  0  0  0  0  0  0  0  0
    3.1213    0.9590    0.5062 N   0  0  0  0  0  0  0  0  0  0  0  0
    4.5265    1.0492    0.3381 C   0  0  0  0  0  0  0  0  0  0  0  0
    5.2109    0.5219   -0.7575 C   0  0  0  0  0  0  0  0  0  0  0  0
    6.5954    0.6631   -0.8721 C   0  0  0  0  0  0  0  0  0  0  0  0
    7.3323    1.2897    0.1345 C   0  0  0  0  0  0  0  0  0  0  0  0
    8.7068    1.4245    0.0952 O   0  0  0  0  0  0  0  0  0  0  0  0
    9.4612    0.4074   -0.4614 C   0  0  0  0  0  0  0  0  0  0  0  0
    9.1127   -0.9368   -0.3643 C   0  0  0  0  0  0  0  0  0  0  0  0
    9.9138   -1.8550   -1.0005 C   0  0  0  0  0  0  0  0  0  0  0  0
   11.0325   -1.5214   -1.6663 N   0  0  0  0  0  0  0  0  0  0  0  0
   11.4012   -0.2315   -1.7182 C   0  0  0  0  0  0  0  0  0  0  0  0
   12.5789    0.1174   -2.4028 N   0  0  0  0  0  0  0  0  0  0  0  0
   13.3725   -0.7950   -3.0734 C   0  0  0  0  0  0  0  0  0  0  0  0
   13.1803   -1.9919   -3.2085 O   0  0  0  0  0  0  0  0  0  0  0  0
   14.6094   -0.2523   -3.7198 C   0  0  0  0  0  0  0  0  0  0  0  0
   15.1715    1.1342   -3.5517 C   0  0  0  0  0  0  0  0  0  0  0  0
   14.5009    0.7542   -4.8418 C   0  0  0  0  0  0  0  0  0  0  0  0
   10.6432    0.7694   -1.1157 C   0  0  0  0  0  0  0  0  0  0  0  0
    6.6609    1.8540    1.2189 C   0  0  0  0  0  0  0  0  0  0  0  0
    5.2723    1.7270    1.3111 C   0  0  0  0  0  0  0  0  0  0  0  0
    4.6393    2.2742    2.3623 F   0  0  0  0  0  0  0  0  0  0  0  0
    0.7466    1.2211    0.7267 H   0  0  0  0  0  0  0  0  0  0  0  0
    0.7925   -1.4579   -1.9059 H   0  0  0  0  0  0  0  0  0  0  0  0
   -1.1833   -2.1051   -3.1539 H   0  0  0  0  0  0  0  0  0  0  0  0
   -3.3718   -1.0570   -2.6914 H   0  0  0  0  0  0  0  0  0  0  0  0
   -1.5466    1.3839    0.3592 H   0  0  0  0  0  0  0  0  0  0  0  0
    2.7569    1.3709    1.3544 H   0  0  0  0  0  0  0  0  0  0  0  0
    4.7083   -0.0112   -1.5572 H   0  0  0  0  0  0  0  0  0  0  0  0
    7.0781    0.2486   -1.7542 H   0  0  0  0  0  0  0  0  0  0  0  0
    8.2276   -1.2757    0.1590 H   0  0  0  0  0  0  0  0  0  0  0  0
    9.6711   -2.9135   -1.0096 H   0  0  0  0  0  0  0  0  0  0  0  0
   12.8353    1.0897   -2.4184 H   0  0  0  0  0  0  0  0  0  0  0  0
   15.3465   -1.0366   -3.8660 H   0  0  0  0  0  0  0  0  0  0  0  0
   16.2546    1.2223   -3.5506 H   0  0  0  0  0  0  0  0  0  0  0  0
   14.6884    1.8616   -2.9179 H   0  0  0  0  0  0  0  0  0  0  0  0
   15.1217    0.5899   -5.7155 H   0  0  0  0  0  0  0  0  0  0  0  0
   13.5302    1.1797   -5.0664 H   0  0  0  0  0  0  0  0  0  0  0  0
   10.9400    1.8107   -1.1583 H   0  0  0  0  0  0  0  0  0  0  0  0
    7.2039    2.3836    1.9944 H   0  0  0  0  0  0  0  0  0  0  0  0
  1  2  2  0  0  0  0
  2  3  1  0  0  0  0
  2 14  1  0  0  0  0
  3  4  1  0  0  0  0
  3 35  1  0  0  0  0
  4  5  1  0  0  0  0
  4 13  2  0  0  0  0
  5  6  2  0  0  0  0
  5 36  1  0  0  0  0
  6  7  1  0  0  0  0
  6 37  1  0  0  0  0
  7  8  2  0  0  0  0
  7 38  1  0  0  0  0
  8  9  1  0  0  0  0
  8 13  1  0  0  0  0
  9 10  1  0  0  0  0
  9 11  1  0  0  0  0
  9 12  1  0  0  0  0
 13 39  1  0  0  0  0
 14 15  1  0  0  0  0
 14 40  1  0  0  0  0
 15 16  1  0  0  0  0
 15 33  2  0  0  0  0
 16 17  2  0  0  0  0
 16 41  1  0  0  0  0
 17 18  1  0  0  0  0
 17 42  1  0  0  0  0
 18 19  1  0  0  0  0
 18 32  2  0  0  0  0
 19 20  1  0  0  0  0
 20 21  1  0  0  0  0
 20 31  2  0  0  0  0
 21 22  2  0  0  0  0
 21 43  1  0  0  0  0
 22 23  1  0  0  0  0
 22 44  1  0  0  0  0
 23 24  2  0  0  0  0
 24 25  1  0  0  0  0
 24 31  1  0  0  0  0
 25 26  1  0  0  0  0
 25 45  1  0  0  0  0
 26 27  2  0  0  0  0
 26 28  1  0  0  0  0
 28 29  1  0  0  0  0
 28 30  1  0  0  0  0
 28 46  1  0  0  0  0
 29 30  1  0  0  0  0
 29 47  1  0  0  0  0
 29 48  1  0  0  0  0
 30 49  1  0  0  0  0
 30 50  1  0  0  0  0
 31 51  1  0  0  0  0
 32 33  1  0  0  0  0
 32 52  1  0  0  0  0
 33 34  1  0  0  0  0
M  END
$$$$
