CHEMBL1173174
 OpenBabel04072215363D

 55 58  0  0  0  0  0  0  0  0999 V2000
   12.6743   -5.5265   -3.5260 C   0  0  0  0  0  0  0  0  0  0  0  0
   11.5403   -5.1906   -2.7281 O   0  0  0  0  0  0  0  0  0  0  0  0
   10.4350   -4.7549   -3.4144 C   0  0  0  0  0  0  0  0  0  0  0  0
   10.3494   -4.6448   -4.7928 C   0  0  0  0  0  0  0  0  0  0  0  0
    9.1753   -4.1847   -5.3941 C   0  0  0  0  0  0  0  0  0  0  0  0
    8.0572   -3.8285   -4.6386 C   0  0  0  0  0  0  0  0  0  0  0  0
    6.8643   -3.3352   -5.2261 N   0  0  0  0  0  0  0  0  0  0  0  0
    6.6197   -3.2374   -6.5889 C   0  0  0  0  0  0  0  0  0  0  0  0
    7.3479   -3.6590   -7.4793 O   0  0  0  0  0  0  0  0  0  0  0  0
    5.4537   -2.5344   -6.8592 N   0  0  0  0  0  0  0  0  0  0  0  0
    5.0839   -2.2514   -8.1990 C   0  0  0  0  0  0  0  0  0  0  0  0
    4.7378   -0.9238   -8.5010 C   0  0  0  0  0  0  0  0  0  0  0  0
    4.4087   -0.5535   -9.8052 C   0  0  0  0  0  0  0  0  0  0  0  0
    4.3785   -1.5335  -10.7866 C   0  0  0  0  0  0  0  0  0  0  0  0
    4.7124   -2.8516  -10.4852 C   0  0  0  0  0  0  0  0  0  0  0  0
    5.0799   -3.2361   -9.2065 C   0  0  0  0  0  0  0  0  0  0  0  0
    4.6060   -3.6442  -11.6353 N   0  0  0  0  0  0  0  0  0  0  0  0
    4.1855   -2.8928  -12.7354 C   0  0  0  0  0  0  0  0  0  0  0  0
    3.9922   -3.2822  -13.8734 O   0  0  0  0  0  0  0  0  0  0  0  0
    4.0119   -1.4955  -12.2127 C   0  0  0  0  0  0  0  0  0  0  0  0
    3.5780   -0.3601  -12.7757 C   0  0  0  0  0  0  0  0  0  0  0  0
    3.0861   -0.0678  -14.0742 C   0  0  0  0  0  0  0  0  0  0  0  0
    3.0197   -0.9839  -15.0901 N   0  0  0  0  0  0  0  0  0  0  0  0
    2.4339   -0.4121  -16.2067 C   0  0  0  0  0  0  0  0  0  0  0  0
    2.1582   -1.2467  -17.4132 C   0  0  0  0  0  0  0  0  0  0  0  0
    2.1362    0.9179  -15.9108 C   0  0  0  0  0  0  0  0  0  0  0  0
    1.4673    1.9093  -16.7608 C   0  0  0  0  0  0  0  0  0  0  0  0
    0.7746    2.8206  -16.3288 O   0  0  0  0  0  0  0  0  0  0  0  0
    1.6980    1.7795  -18.0915 O   0  0  0  0  0  0  0  0  0  0  0  0
    2.5652    1.1272  -14.5540 C   0  0  0  0  0  0  0  0  0  0  0  0
    2.4617    2.3913  -13.7619 C   0  0  0  0  0  0  0  0  0  0  0  0
    8.1427   -3.9423   -3.2457 C   0  0  0  0  0  0  0  0  0  0  0  0
    9.3246   -4.4037   -2.6398 C   0  0  0  0  0  0  0  0  0  0  0  0
   13.4720   -5.8680   -2.8606 H   0  0  0  0  0  0  0  0  0  0  0  0
   13.0470   -4.6509   -4.0703 H   0  0  0  0  0  0  0  0  0  0  0  0
   12.4453   -6.3474   -4.2152 H   0  0  0  0  0  0  0  0  0  0  0  0
   11.1708   -4.9013   -5.4529 H   0  0  0  0  0  0  0  0  0  0  0  0
    9.1879   -4.1165   -6.4753 H   0  0  0  0  0  0  0  0  0  0  0  0
    6.1000   -3.1239   -4.6012 H   0  0  0  0  0  0  0  0  0  0  0  0
    5.2458   -1.8149   -6.1811 H   0  0  0  0  0  0  0  0  0  0  0  0
    4.7795   -0.1519   -7.7372 H   0  0  0  0  0  0  0  0  0  0  0  0
    4.1923    0.4856  -10.0266 H   0  0  0  0  0  0  0  0  0  0  0  0
    5.3434   -4.2642   -8.9843 H   0  0  0  0  0  0  0  0  0  0  0  0
    4.8082   -4.6373  -11.6806 H   0  0  0  0  0  0  0  0  0  0  0  0
    3.5501    0.5109  -12.1274 H   0  0  0  0  0  0  0  0  0  0  0  0
    3.3147   -1.9556  -15.0141 H   0  0  0  0  0  0  0  0  0  0  0  0
    2.4152   -2.2977  -17.2489 H   0  0  0  0  0  0  0  0  0  0  0  0
    2.7440   -0.8995  -18.2701 H   0  0  0  0  0  0  0  0  0  0  0  0
    1.0963   -1.1962  -17.6758 H   0  0  0  0  0  0  0  0  0  0  0  0
    2.3931    1.1212  -18.2564 H   0  0  0  0  0  0  0  0  0  0  0  0
    2.0853    3.2344  -14.3419 H   0  0  0  0  0  0  0  0  0  0  0  0
    3.4493    2.6763  -13.3827 H   0  0  0  0  0  0  0  0  0  0  0  0
    1.7954    2.2435  -12.9055 H   0  0  0  0  0  0  0  0  0  0  0  0
    7.3067   -3.6741   -2.6049 H   0  0  0  0  0  0  0  0  0  0  0  0
    9.3823   -4.4860   -1.5577 H   0  0  0  0  0  0  0  0  0  0  0  0
  1  2  1  0  0  0  0
  1 34  1  0  0  0  0
  1 35  1  0  0  0  0
  1 36  1  0  0  0  0
  2  3  1  0  0  0  0
  3  4  1  0  0  0  0
  3 33  2  0  0  0  0
  4  5  2  0  0  0  0
  4 37  1  0  0  0  0
  5  6  1  0  0  0  0
  5 38  1  0  0  0  0
  6  7  1  0  0  0  0
  6 32  2  0  0  0  0
  7  8  1  0  0  0  0
  7 39  1  0  0  0  0
  8  9  2  0  0  0  0
  8 10  1  0  0  0  0
 10 11  1  0  0  0  0
 10 40  1  0  0  0  0
 11 12  1  0  0  0  0
 11 16  2  0  0  0  0
 12 13  2  0  0  0  0
 12 41  1  0  0  0  0
 13 14  1  0  0  0  0
 13 42  1  0  0  0  0
 14 15  2  0  0  0  0
 14 20  1  0  0  0  0
 15 16  1  0  0  0  0
 15 17  1  0  0  0  0
 16 43  1  0  0  0  0
 17 18  1  0  0  0  0
 17 44  1  0  0  0  0
 18 19  2  0  0  0  0
 18 20  1  0  0  0  0
 20 21  2  0  0  0  0
 21 22  1  0  0  0  0
 21 45  1  0  0  0  0
 22 23  1  0  0  0  0
 22 30  2  0  0  0  0
 23 24  1  0  0  0  0
 23 46  1  0  0  0  0
 24 25  1  0  0  0  0
 24 26  2  0  0  0  0
 25 47  1  0  0  0  0
 25 48  1  0  0  0  0
 25 49  1  0  0  0  0
 26 27  1  0  0  0  0
 26 30  1  0  0  0  0
 27 28  2  0  0  0  0
 27 29  1  0  0  0  0
 29 50  1  0  0  0  0
 30 31  1  0  0  0  0
 31 51  1  0  0  0  0
 31 52  1  0  0  0  0
 31 53  1  0  0  0  0
 32 33  1  0  0  0  0
 32 54  1  0  0  0  0
 33 55  1  0  0  0  0
M  END
$$$$
