CHEMBL3660305
 OpenBabel04072215373D

 48 51  0  0  0  0  0  0  0  0999 V2000
    3.5007    5.2902    1.4367 C   0  0  0  0  0  0  0  0  0  0  0  0
    2.1292    5.8509    1.1905 C   0  0  0  0  0  0  0  0  0  0  0  0
    1.9017    7.2208    1.3511 C   0  0  0  0  0  0  0  0  0  0  0  0
    0.6451    7.7491    1.0871 C   0  0  0  0  0  0  0  0  0  0  0  0
   -0.3940    6.9164    0.6780 C   0  0  0  0  0  0  0  0  0  0  0  0
   -1.5270    7.5344    0.3266 F   0  0  0  0  0  0  0  0  0  0  0  0
   -0.2246    5.5296    0.5679 C   0  0  0  0  0  0  0  0  0  0  0  0
   -1.2570    4.6017    0.2528 N   0  0  0  0  0  0  0  0  0  0  0  0
   -2.6207    4.8491    0.3090 C   0  0  0  0  0  0  0  0  0  0  0  0
   -3.1494    5.9029    0.6266 O   0  0  0  0  0  0  0  0  0  0  0  0
   -3.3655    3.7007    0.0294 N   0  0  0  0  0  0  0  0  0  0  0  0
   -4.7840    3.7559    0.0485 C   0  0  0  0  0  0  0  0  0  0  0  0
   -5.4796    2.7978    0.7815 C   0  0  0  0  0  0  0  0  0  0  0  0
   -6.8628    2.9007    0.9076 C   0  0  0  0  0  0  0  0  0  0  0  0
   -7.5554    3.9371    0.2737 C   0  0  0  0  0  0  0  0  0  0  0  0
   -6.8938    4.8966   -0.5154 C   0  0  0  0  0  0  0  0  0  0  0  0
   -7.6434    6.0062   -1.1654 C   0  0  0  0  0  0  0  0  0  0  0  0
   -8.9824    5.8643   -1.5592 C   0  0  0  0  0  0  0  0  0  0  0  0
   -9.6610    6.9473   -2.1038 C   0  0  0  0  0  0  0  0  0  0  0  0
   -9.1050    8.1554   -2.3107 N   0  0  0  0  0  0  0  0  0  0  0  0
   -7.8062    8.2891   -1.9544 C   0  0  0  0  0  0  0  0  0  0  0  0
   -7.2508    9.6149   -2.2110 C   0  0  0  0  0  0  0  0  0  0  0  0
   -5.9788   10.1428   -2.0476 C   0  0  0  0  0  0  0  0  0  0  0  0
   -6.0073   11.4982   -2.4580 C   0  0  0  0  0  0  0  0  0  0  0  0
   -7.2909   11.7743   -2.8668 C   0  0  0  0  0  0  0  0  0  0  0  0
   -8.0299   10.6334   -2.7176 N   0  0  0  0  0  0  0  0  0  0  0  0
   -7.0580    7.2622   -1.3859 C   0  0  0  0  0  0  0  0  0  0  0  0
   -5.4920    4.7742   -0.6146 C   0  0  0  0  0  0  0  0  0  0  0  0
    1.0645    5.0102    0.8000 C   0  0  0  0  0  0  0  0  0  0  0  0
    4.2095    6.0791    1.7136 H   0  0  0  0  0  0  0  0  0  0  0  0
    3.8813    4.8091    0.5305 H   0  0  0  0  0  0  0  0  0  0  0  0
    3.4750    4.5643    2.2546 H   0  0  0  0  0  0  0  0  0  0  0  0
    2.7011    7.8882    1.6639 H   0  0  0  0  0  0  0  0  0  0  0  0
    0.4594    8.8155    1.1766 H   0  0  0  0  0  0  0  0  0  0  0  0
   -0.9744    3.6492    0.0781 H   0  0  0  0  0  0  0  0  0  0  0  0
   -2.9586    2.8493    0.3864 H   0  0  0  0  0  0  0  0  0  0  0  0
   -4.9571    2.0151    1.3223 H   0  0  0  0  0  0  0  0  0  0  0  0
   -7.4060    2.1949    1.5314 H   0  0  0  0  0  0  0  0  0  0  0  0
   -8.6287    3.9995    0.4358 H   0  0  0  0  0  0  0  0  0  0  0  0
   -9.5138    4.9238   -1.4482 H   0  0  0  0  0  0  0  0  0  0  0  0
  -10.7061    6.8611   -2.3888 H   0  0  0  0  0  0  0  0  0  0  0  0
   -5.1160    9.6103   -1.6701 H   0  0  0  0  0  0  0  0  0  0  0  0
   -5.1779   12.1929   -2.4540 H   0  0  0  0  0  0  0  0  0  0  0  0
   -7.7412   12.6805   -3.2497 H   0  0  0  0  0  0  0  0  0  0  0  0
   -9.0127   10.5150   -2.9350 H   0  0  0  0  0  0  0  0  0  0  0  0
   -6.0310    7.4518   -1.0928 H   0  0  0  0  0  0  0  0  0  0  0  0
   -4.9265    5.4877   -1.2120 H   0  0  0  0  0  0  0  0  0  0  0  0
    1.2532    3.9442    0.7021 H   0  0  0  0  0  0  0  0  0  0  0  0
  1  2  1  0  0  0  0
  1 30  1  0  0  0  0
  1 31  1  0  0  0  0
  1 32  1  0  0  0  0
  2  3  1  0  0  0  0
  2 29  2  0  0  0  0
  3  4  2  0  0  0  0
  3 33  1  0  0  0  0
  4  5  1  0  0  0  0
  4 34  1  0  0  0  0
  5  6  1  0  0  0  0
  5  7  2  0  0  0  0
  7  8  1  0  0  0  0
  7 29  1  0  0  0  0
  8  9  1  0  0  0  0
  8 35  1  0  0  0  0
  9 10  2  0  0  0  0
  9 11  1  0  0  0  0
 11 12  1  0  0  0  0
 11 36  1  0  0  0  0
 12 13  1  0  0  0  0
 12 28  2  0  0  0  0
 13 14  2  0  0  0  0
 13 37  1  0  0  0  0
 14 15  1  0  0  0  0
 14 38  1  0  0  0  0
 15 16  2  0  0  0  0
 15 39  1  0  0  0  0
 16 17  1  0  0  0  0
 16 28  1  0  0  0  0
 17 18  1  0  0  0  0
 17 27  2  0  0  0  0
 18 19  2  0  0  0  0
 18 40  1  0  0  0  0
 19 20  1  0  0  0  0
 19 41  1  0  0  0  0
 20 21  2  0  0  0  0
 21 22  1  0  0  0  0
 21 27  1  0  0  0  0
 22 23  2  0  0  0  0
 22 26  1  0  0  0  0
 23 24  1  0  0  0  0
 23 42  1  0  0  0  0
 24 25  2  0  0  0  0
 24 43  1  0  0  0  0
 25 26  1  0  0  0  0
 25 44  1  0  0  0  0
 26 45  1  0  0  0  0
 27 46  1  0  0  0  0
 28 47  1  0  0  0  0
 29 48  1  0  0  0  0
M  END
$$$$
