CHEMBL3961210
 OpenBabel04072215373D

 62 65  0  0  0  0  0  0  0  0999 V2000
    7.3482   -4.8042    5.1700 C   0  0  0  0  0  0  0  0  0  0  0  0
    7.1854   -3.9962    4.0005 O   0  0  0  0  0  0  0  0  0  0  0  0
    6.4829   -4.5599    2.9602 C   0  0  0  0  0  0  0  0  0  0  0  0
    5.5563   -5.5915    3.1152 C   0  0  0  0  0  0  0  0  0  0  0  0
    4.8509   -6.0529    2.0076 C   0  0  0  0  0  0  0  0  0  0  0  0
    3.8919   -7.0294    2.0187 O   0  0  0  0  0  0  0  0  0  0  0  0
    3.6934   -7.7246    3.2445 C   0  0  0  0  0  0  0  0  0  0  0  0
    5.0748   -5.4791    0.7480 C   0  0  0  0  0  0  0  0  0  0  0  0
    5.9904   -4.4359    0.5473 C   0  0  0  0  0  0  0  0  0  0  0  0
    6.0996   -3.7470   -0.6879 N   0  0  0  0  0  0  0  0  0  0  0  0
    4.8194   -3.6138   -1.4892 C   0  0  0  0  0  0  0  0  0  0  0  0
    3.6316   -2.9368   -0.7814 C   0  0  0  0  0  0  0  0  0  0  0  0
    3.8665   -1.5477   -0.5563 O   0  0  0  0  0  0  0  0  0  0  0  0
    7.1933   -3.7521   -1.6385 C   0  0  0  0  0  0  0  0  0  0  0  0
    7.3570   -2.5474   -2.3402 C   0  0  0  0  0  0  0  0  0  0  0  0
    7.9122   -2.5516   -3.5978 C   0  0  0  0  0  0  0  0  0  0  0  0
    8.4563   -3.6936   -4.1503 C   0  0  0  0  0  0  0  0  0  0  0  0
    8.7669   -3.5905   -5.4391 N   0  0  0  0  0  0  0  0  0  0  0  0
    9.4754   -4.5937   -5.9693 C   0  0  0  0  0  0  0  0  0  0  0  0
    9.9611   -5.6369   -5.2052 C   0  0  0  0  0  0  0  0  0  0  0  0
   11.1823   -6.2633   -5.7220 C   0  0  0  0  0  0  0  0  0  0  0  0
   11.5006   -7.5336   -6.2521 C   0  0  0  0  0  0  0  0  0  0  0  0
   12.7518   -7.6002   -6.7450 N   0  0  0  0  0  0  0  0  0  0  0  0
   13.2611   -6.3761   -6.5031 N   0  0  0  0  0  0  0  0  0  0  0  0
   14.6994   -6.1590   -6.4716 C   0  0  0  0  0  0  0  0  0  0  0  0
   15.4276   -6.0837   -7.8076 C   0  0  0  0  0  0  0  0  0  0  0  0
   17.1841   -5.8942   -7.4735 S   0  0  0  0  0  0  0  0  0  0  0  0
   17.9636   -5.7545   -9.0697 C   0  0  0  0  0  0  0  0  0  0  0  0
   17.3695   -4.6253   -6.7951 O   0  0  0  0  0  0  0  0  0  0  0  0
   17.6543   -7.1267   -6.8719 O   0  0  0  0  0  0  0  0  0  0  0  0
   12.3133   -5.5120   -6.0250 C   0  0  0  0  0  0  0  0  0  0  0  0
    9.5047   -5.8298   -3.9163 N   0  0  0  0  0  0  0  0  0  0  0  0
    8.6640   -4.8565   -3.3635 C   0  0  0  0  0  0  0  0  0  0  0  0
    7.9349   -4.8759   -2.1060 C   0  0  0  0  0  0  0  0  0  0  0  0
    6.6896   -3.9846    1.6860 C   0  0  0  0  0  0  0  0  0  0  0  0
    7.9566   -4.2525    5.8893 H   0  0  0  0  0  0  0  0  0  0  0  0
    7.8694   -5.7362    4.9283 H   0  0  0  0  0  0  0  0  0  0  0  0
    6.3900   -5.0147    5.6659 H   0  0  0  0  0  0  0  0  0  0  0  0
    5.3562   -6.0055    4.0962 H   0  0  0  0  0  0  0  0  0  0  0  0
    2.9705   -8.5250    3.0599 H   0  0  0  0  0  0  0  0  0  0  0  0
    3.2713   -7.0631    4.0084 H   0  0  0  0  0  0  0  0  0  0  0  0
    4.6224   -8.1884    3.5917 H   0  0  0  0  0  0  0  0  0  0  0  0
    4.4860   -5.8589   -0.0806 H   0  0  0  0  0  0  0  0  0  0  0  0
    4.5222   -4.5971   -1.8662 H   0  0  0  0  0  0  0  0  0  0  0  0
    4.9838   -2.9928   -2.3801 H   0  0  0  0  0  0  0  0  0  0  0  0
    3.3474   -3.4172    0.1574 H   0  0  0  0  0  0  0  0  0  0  0  0
    2.7633   -2.9957   -1.4503 H   0  0  0  0  0  0  0  0  0  0  0  0
    3.5877   -1.3577    0.3565 H   0  0  0  0  0  0  0  0  0  0  0  0
    6.8983   -1.6391   -1.9615 H   0  0  0  0  0  0  0  0  0  0  0  0
    7.8725   -1.6453   -4.1984 H   0  0  0  0  0  0  0  0  0  0  0  0
    9.7390   -4.4766   -7.0170 H   0  0  0  0  0  0  0  0  0  0  0  0
   10.8741   -8.4135   -6.3280 H   0  0  0  0  0  0  0  0  0  0  0  0
   15.1088   -6.9696   -5.8572 H   0  0  0  0  0  0  0  0  0  0  0  0
   14.8662   -5.2333   -5.9066 H   0  0  0  0  0  0  0  0  0  0  0  0
   15.1116   -5.2142   -8.3956 H   0  0  0  0  0  0  0  0  0  0  0  0
   15.3024   -6.9912   -8.4032 H   0  0  0  0  0  0  0  0  0  0  0  0
   17.6605   -4.8165   -9.5348 H   0  0  0  0  0  0  0  0  0  0  0  0
   17.6851   -6.6109   -9.6828 H   0  0  0  0  0  0  0  0  0  0  0  0
   19.0469   -5.7518   -8.9121 H   0  0  0  0  0  0  0  0  0  0  0  0
   12.5337   -4.4626   -5.8807 H   0  0  0  0  0  0  0  0  0  0  0  0
    7.9027   -5.8120   -1.5473 H   0  0  0  0  0  0  0  0  0  0  0  0
    7.3639   -3.1337    1.6019 H   0  0  0  0  0  0  0  0  0  0  0  0
  1  2  1  0  0  0  0
  1 36  1  0  0  0  0
  1 37  1  0  0  0  0
  1 38  1  0  0  0  0
  2  3  1  0  0  0  0
  3  4  1  0  0  0  0
  3 35  2  0  0  0  0
  4  5  2  0  0  0  0
  4 39  1  0  0  0  0
  5  6  1  0  0  0  0
  5  8  1  0  0  0  0
  6  7  1  0  0  0  0
  7 40  1  0  0  0  0
  7 41  1  0  0  0  0
  7 42  1  0  0  0  0
  8  9  2  0  0  0  0
  8 43  1  0  0  0  0
  9 10  1  0  0  0  0
  9 35  1  0  0  0  0
 10 11  1  0  0  0  0
 10 14  1  0  0  0  0
 11 12  1  0  0  0  0
 11 44  1  0  0  0  0
 11 45  1  0  0  0  0
 12 13  1  0  0  0  0
 12 46  1  0  0  0  0
 12 47  1  0  0  0  0
 13 48  1  0  0  0  0
 14 15  1  0  0  0  0
 14 34  2  0  0  0  0
 15 16  2  0  0  0  0
 15 49  1  0  0  0  0
 16 17  1  0  0  0  0
 16 50  1  0  0  0  0
 17 18  1  0  0  0  0
 17 33  2  0  0  0  0
 18 19  2  0  0  0  0
 19 20  1  0  0  0  0
 19 51  1  0  0  0  0
 20 21  1  0  0  0  0
 20 32  2  0  0  0  0
 21 22  1  0  0  0  0
 21 31  2  0  0  0  0
 22 23  2  0  0  0  0
 22 52  1  0  0  0  0
 23 24  1  0  0  0  0
 24 25  1  0  0  0  0
 24 31  1  0  0  0  0
 25 26  1  0  0  0  0
 25 53  1  0  0  0  0
 25 54  1  0  0  0  0
 26 27  1  0  0  0  0
 26 55  1  0  0  0  0
 26 56  1  0  0  0  0
 27 28  1  0  0  0  0
 27 29  2  0  0  0  0
 27 30  2  0  0  0  0
 28 57  1  0  0  0  0
 28 58  1  0  0  0  0
 28 59  1  0  0  0  0
 31 60  1  0  0  0  0
 32 33  1  0  0  0  0
 33 34  1  0  0  0  0
 34 61  1  0  0  0  0
 35 62  1  0  0  0  0
M  END
$$$$
