CHEMBL565807
 OpenBabel04072215383D

 63 68  0  0  0  0  0  0  0  0999 V2000
   -3.1209  -10.6892   -6.8296 C   0  0  0  0  0  0  0  0  0  0  0  0
   -2.3616   -9.3820   -6.9599 C   0  0  0  0  0  0  0  0  0  0  0  0
   -1.1419   -9.3803   -6.1819 N   0  0  0  0  0  0  0  0  0  0  0  0
    0.0984   -9.7449   -6.6176 C   0  0  0  0  0  0  0  0  0  0  0  0
    1.0035   -9.5627   -5.6817 N   0  0  0  0  0  0  0  0  0  0  0  0
    0.3072   -9.1145   -4.5817 C   0  0  0  0  0  0  0  0  0  0  0  0
    0.9496   -8.8260   -3.2692 C   0  0  0  0  0  0  0  0  0  0  0  0
    2.3142   -8.7913   -3.1007 C   0  0  0  0  0  0  0  0  0  0  0  0
    2.6897   -8.4727   -1.7648 C   0  0  0  0  0  0  0  0  0  0  0  0
    3.9659   -8.2960   -1.3336 N   0  0  0  0  0  0  0  0  0  0  0  0
    4.1112   -8.0168   -0.0257 C   0  0  0  0  0  0  0  0  0  0  0  0
    3.0897   -7.9768    0.8994 C   0  0  0  0  0  0  0  0  0  0  0  0
    1.8022   -8.2500    0.4616 C   0  0  0  0  0  0  0  0  0  0  0  0
    0.7810   -8.3101    1.3780 O   0  0  0  0  0  0  0  0  0  0  0  0
    0.7251   -9.4054    2.2165 C   0  0  0  0  0  0  0  0  0  0  0  0
   -0.2670   -9.3066    3.1860 C   0  0  0  0  0  0  0  0  0  0  0  0
   -0.5527  -10.3884    4.0170 C   0  0  0  0  0  0  0  0  0  0  0  0
    0.1344  -11.5986    3.8894 C   0  0  0  0  0  0  0  0  0  0  0  0
   -0.2753  -12.7599    4.5772 N   0  0  0  0  0  0  0  0  0  0  0  0
   -1.5586  -12.9492    5.0740 C   0  0  0  0  0  0  0  0  0  0  0  0
   -2.5064  -12.1772    4.9979 O   0  0  0  0  0  0  0  0  0  0  0  0
   -1.7885  -14.2548    5.7623 C   0  0  0  0  0  0  0  0  0  0  0  0
   -1.3511  -14.2476    7.1866 C   0  0  0  0  0  0  0  0  0  0  0  0
   -0.1426  -14.3699    7.4004 O   0  0  0  0  0  0  0  0  0  0  0  0
   -2.3347  -14.0985    8.1505 N   0  0  0  0  0  0  0  0  0  0  0  0
   -1.9740  -14.1372    9.5128 C   0  0  0  0  0  0  0  0  0  0  0  0
   -0.9406  -13.3259    9.9949 C   0  0  0  0  0  0  0  0  0  0  0  0
   -0.4474  -13.5085   11.2848 C   0  0  0  0  0  0  0  0  0  0  0  0
   -0.9803  -14.5119   12.0894 C   0  0  0  0  0  0  0  0  0  0  0  0
   -2.0542  -15.2789   11.6313 C   0  0  0  0  0  0  0  0  0  0  0  0
   -2.5812  -15.0667   10.3543 C   0  0  0  0  0  0  0  0  0  0  0  0
   -1.5792  -15.5546    4.9832 C   0  0  0  0  0  0  0  0  0  0  0  0
   -2.9698  -15.0923    5.2770 C   0  0  0  0  0  0  0  0  0  0  0  0
    1.2253  -11.6576    3.0243 C   0  0  0  0  0  0  0  0  0  0  0  0
    1.4970  -10.5753    2.1750 C   0  0  0  0  0  0  0  0  0  0  0  0
    2.5047  -10.7276    1.3032 F   0  0  0  0  0  0  0  0  0  0  0  0
    1.5819   -8.4031   -0.9145 C   0  0  0  0  0  0  0  0  0  0  0  0
    0.1184   -8.5291   -1.8093 S   0  0  0  0  0  0  0  0  0  0  0  0
   -1.0312   -8.9902   -4.8769 C   0  0  0  0  0  0  0  0  0  0  0  0
   -4.0912  -10.6161   -7.3299 H   0  0  0  0  0  0  0  0  0  0  0  0
   -3.2953  -10.9448   -5.7789 H   0  0  0  0  0  0  0  0  0  0  0  0
   -2.5616  -11.5130   -7.2851 H   0  0  0  0  0  0  0  0  0  0  0  0
   -2.9758   -8.5464   -6.6057 H   0  0  0  0  0  0  0  0  0  0  0  0
   -2.1001   -9.1835   -8.0051 H   0  0  0  0  0  0  0  0  0  0  0  0
    0.2896  -10.1316   -7.6106 H   0  0  0  0  0  0  0  0  0  0  0  0
    3.0220   -8.9656   -3.9015 H   0  0  0  0  0  0  0  0  0  0  0  0
    5.1391   -7.8453    0.2906 H   0  0  0  0  0  0  0  0  0  0  0  0
    3.2898   -7.7619    1.9419 H   0  0  0  0  0  0  0  0  0  0  0  0
   -0.8535   -8.3965    3.2795 H   0  0  0  0  0  0  0  0  0  0  0  0
   -1.3398  -10.2597    4.7557 H   0  0  0  0  0  0  0  0  0  0  0  0
    0.3569  -13.5542    4.5970 H   0  0  0  0  0  0  0  0  0  0  0  0
   -3.2803  -14.3546    7.8954 H   0  0  0  0  0  0  0  0  0  0  0  0
   -0.4996  -12.5605    9.3602 H   0  0  0  0  0  0  0  0  0  0  0  0
    0.3750  -12.8942   11.6416 H   0  0  0  0  0  0  0  0  0  0  0  0
   -0.5498  -14.7039   13.0687 H   0  0  0  0  0  0  0  0  0  0  0  0
   -2.4541  -16.0716   12.2578 H   0  0  0  0  0  0  0  0  0  0  0  0
   -3.3859  -15.7024    9.9992 H   0  0  0  0  0  0  0  0  0  0  0  0
   -1.2242  -16.4311    5.5171 H   0  0  0  0  0  0  0  0  0  0  0  0
   -1.2273  -15.4973    3.9596 H   0  0  0  0  0  0  0  0  0  0  0  0
   -3.5559  -15.6703    5.9797 H   0  0  0  0  0  0  0  0  0  0  0  0
   -3.5517  -14.7116    4.4410 H   0  0  0  0  0  0  0  0  0  0  0  0
    1.8346  -12.5512    2.9337 H   0  0  0  0  0  0  0  0  0  0  0  0
   -1.8793   -8.6596   -4.2947 H   0  0  0  0  0  0  0  0  0  0  0  0
  1  2  1  0  0  0  0
  1 40  1  0  0  0  0
  1 41  1  0  0  0  0
  1 42  1  0  0  0  0
  2  3  1  0  0  0  0
  2 43  1  0  0  0  0
  2 44  1  0  0  0  0
  3  4  1  0  0  0  0
  3 39  1  0  0  0  0
  4  5  2  0  0  0  0
  4 45  1  0  0  0  0
  5  6  1  0  0  0  0
  6  7  1  0  0  0  0
  6 39  2  0  0  0  0
  7  8  2  0  0  0  0
  7 38  1  0  0  0  0
  8  9  1  0  0  0  0
  8 46  1  0  0  0  0
  9 10  1  0  0  0  0
  9 37  2  0  0  0  0
 10 11  2  0  0  0  0
 11 12  1  0  0  0  0
 11 47  1  0  0  0  0
 12 13  2  0  0  0  0
 12 48  1  0  0  0  0
 13 14  1  0  0  0  0
 13 37  1  0  0  0  0
 14 15  1  0  0  0  0
 15 16  1  0  0  0  0
 15 35  2  0  0  0  0
 16 17  2  0  0  0  0
 16 49  1  0  0  0  0
 17 18  1  0  0  0  0
 17 50  1  0  0  0  0
 18 19  1  0  0  0  0
 18 34  2  0  0  0  0
 19 20  1  0  0  0  0
 19 51  1  0  0  0  0
 20 21  2  0  0  0  0
 20 22  1  0  0  0  0
 22 23  1  0  0  0  0
 22 32  1  0  0  0  0
 22 33  1  0  0  0  0
 23 24  2  0  0  0  0
 23 25  1  0  0  0  0
 25 26  1  0  0  0  0
 25 52  1  0  0  0  0
 26 27  1  0  0  0  0
 26 31  2  0  0  0  0
 27 28  2  0  0  0  0
 27 53  1  0  0  0  0
 28 29  1  0  0  0  0
 28 54  1  0  0  0  0
 29 30  2  0  0  0  0
 29 55  1  0  0  0  0
 30 31  1  0  0  0  0
 30 56  1  0  0  0  0
 31 57  1  0  0  0  0
 32 33  1  0  0  0  0
 32 58  1  0  0  0  0
 32 59  1  0  0  0  0
 33 60  1  0  0  0  0
 33 61  1  0  0  0  0
 34 35  1  0  0  0  0
 34 62  1  0  0  0  0
 35 36  1  0  0  0  0
 37 38  1  0  0  0  0
 39 63  1  0  0  0  0
M  END
$$$$
