CHEMBL494272
 OpenBabel04072215383D

 53 57  0  0  0  0  0  0  0  0999 V2000
   -1.8664   -2.0120   -1.4137 C   0  0  0  0  0  0  0  0  0  0  0  0
   -1.0200   -0.9193   -0.8112 C   0  0  0  0  0  0  0  0  0  0  0  0
   -1.5472    0.3905   -0.8490 C   0  0  0  0  0  0  0  0  0  0  0  0
   -0.8843    1.4640   -0.2531 C   0  0  0  0  0  0  0  0  0  0  0  0
    0.3385    1.2484    0.3722 C   0  0  0  0  0  0  0  0  0  0  0  0
    1.0793    2.3238    1.0876 C   0  0  0  0  0  0  0  0  0  0  0  0
    1.7973    2.0364    2.0422 O   0  0  0  0  0  0  0  0  0  0  0  0
    0.9324    3.6026    0.5916 N   0  0  0  0  0  0  0  0  0  0  0  0
    1.6384    4.7067    1.1509 C   0  0  0  0  0  0  0  0  0  0  0  0
    1.0018    5.5450    2.2294 C   0  0  0  0  0  0  0  0  0  0  0  0
    1.2057    6.1184    0.8625 C   0  0  0  0  0  0  0  0  0  0  0  0
    0.8881   -0.0372    0.3787 C   0  0  0  0  0  0  0  0  0  0  0  0
    0.2374   -1.1528   -0.2024 C   0  0  0  0  0  0  0  0  0  0  0  0
    0.8979   -2.4793   -0.0841 C   0  0  0  0  0  0  0  0  0  0  0  0
    1.5841   -2.8135    1.0897 C   0  0  0  0  0  0  0  0  0  0  0  0
    2.2620   -4.0254    1.2248 C   0  0  0  0  0  0  0  0  0  0  0  0
    2.3053   -4.9860    0.1936 C   0  0  0  0  0  0  0  0  0  0  0  0
    3.0028   -6.2205    0.2586 C   0  0  0  0  0  0  0  0  0  0  0  0
    3.8561   -6.5629    1.2901 N   0  0  0  0  0  0  0  0  0  0  0  0
    4.7598   -5.6294    1.9684 C   0  0  0  0  0  0  0  0  0  0  0  0
    6.1922   -6.1759    2.0464 C   0  0  0  0  0  0  0  0  0  0  0  0
    6.2332   -7.5154    2.5532 O   0  0  0  0  0  0  0  0  0  0  0  0
    5.4682   -8.3827    1.6994 C   0  0  0  0  0  0  0  0  0  0  0  0
    3.9914   -7.9716    1.6732 C   0  0  0  0  0  0  0  0  0  0  0  0
    2.8384   -7.1212   -0.7411 N   0  0  0  0  0  0  0  0  0  0  0  0
    2.0583   -6.8638   -1.8372 N   0  0  0  0  0  0  0  0  0  0  0  0
    1.4550   -5.6695   -1.9378 C   0  0  0  0  0  0  0  0  0  0  0  0
    1.5522   -4.6930   -0.9594 C   0  0  0  0  0  0  0  0  0  0  0  0
    0.9015   -3.4442   -1.1016 C   0  0  0  0  0  0  0  0  0  0  0  0
   -2.8897   -1.6677   -1.6010 H   0  0  0  0  0  0  0  0  0  0  0  0
   -1.9433   -2.8669   -0.7347 H   0  0  0  0  0  0  0  0  0  0  0  0
   -1.4617   -2.3264   -2.3792 H   0  0  0  0  0  0  0  0  0  0  0  0
   -2.5115    0.5727   -1.3217 H   0  0  0  0  0  0  0  0  0  0  0  0
   -1.3593    2.4413   -0.2511 H   0  0  0  0  0  0  0  0  0  0  0  0
    0.4643    3.7352   -0.2928 H   0  0  0  0  0  0  0  0  0  0  0  0
    2.7061    4.5314    1.2448 H   0  0  0  0  0  0  0  0  0  0  0  0
    1.6446    5.8881    3.0362 H   0  0  0  0  0  0  0  0  0  0  0  0
   -0.0039    5.2959    2.5456 H   0  0  0  0  0  0  0  0  0  0  0  0
    1.9824    6.8651    0.7359 H   0  0  0  0  0  0  0  0  0  0  0  0
    0.3281    6.2798    0.2490 H   0  0  0  0  0  0  0  0  0  0  0  0
    1.8562   -0.1635    0.8654 H   0  0  0  0  0  0  0  0  0  0  0  0
    1.6114   -2.1305    1.9376 H   0  0  0  0  0  0  0  0  0  0  0  0
    2.7354   -4.2096    2.1825 H   0  0  0  0  0  0  0  0  0  0  0  0
    4.3851   -5.4838    2.9885 H   0  0  0  0  0  0  0  0  0  0  0  0
    4.8143   -4.6558    1.4701 H   0  0  0  0  0  0  0  0  0  0  0  0
    6.7809   -5.5455    2.7221 H   0  0  0  0  0  0  0  0  0  0  0  0
    6.6753   -6.1476    1.0634 H   0  0  0  0  0  0  0  0  0  0  0  0
    5.5627   -9.3986    2.0945 H   0  0  0  0  0  0  0  0  0  0  0  0
    5.9028   -8.3693    0.6929 H   0  0  0  0  0  0  0  0  0  0  0  0
    3.5747   -8.0710    2.6831 H   0  0  0  0  0  0  0  0  0  0  0  0
    3.4315   -8.6582    1.0294 H   0  0  0  0  0  0  0  0  0  0  0  0
    0.8522   -5.5402   -2.8308 H   0  0  0  0  0  0  0  0  0  0  0  0
    0.4047   -3.2368   -2.0441 H   0  0  0  0  0  0  0  0  0  0  0  0
  1  2  1  0  0  0  0
  1 30  1  0  0  0  0
  1 31  1  0  0  0  0
  1 32  1  0  0  0  0
  2  3  1  0  0  0  0
  2 13  2  0  0  0  0
  3  4  2  0  0  0  0
  3 33  1  0  0  0  0
  4  5  1  0  0  0  0
  4 34  1  0  0  0  0
  5  6  1  0  0  0  0
  5 12  2  0  0  0  0
  6  7  2  0  0  0  0
  6  8  1  0  0  0  0
  8  9  1  0  0  0  0
  8 35  1  0  0  0  0
  9 10  1  0  0  0  0
  9 11  1  0  0  0  0
  9 36  1  0  0  0  0
 10 11  1  0  0  0  0
 10 37  1  0  0  0  0
 10 38  1  0  0  0  0
 11 39  1  0  0  0  0
 11 40  1  0  0  0  0
 12 13  1  0  0  0  0
 12 41  1  0  0  0  0
 13 14  1  0  0  0  0
 14 15  1  0  0  0  0
 14 29  2  0  0  0  0
 15 16  2  0  0  0  0
 15 42  1  0  0  0  0
 16 17  1  0  0  0  0
 16 43  1  0  0  0  0
 17 18  1  0  0  0  0
 17 28  2  0  0  0  0
 18 19  1  0  0  0  0
 18 25  2  0  0  0  0
 19 20  1  0  0  0  0
 19 24  1  0  0  0  0
 20 21  1  0  0  0  0
 20 44  1  0  0  0  0
 20 45  1  0  0  0  0
 21 22  1  0  0  0  0
 21 46  1  0  0  0  0
 21 47  1  0  0  0  0
 22 23  1  0  0  0  0
 23 24  1  0  0  0  0
 23 48  1  0  0  0  0
 23 49  1  0  0  0  0
 24 50  1  0  0  0  0
 24 51  1  0  0  0  0
 25 26  1  0  0  0  0
 26 27  2  0  0  0  0
 27 28  1  0  0  0  0
 27 52  1  0  0  0  0
 28 29  1  0  0  0  0
 29 53  1  0  0  0  0
M  END
$$$$
