CHEMBL2430266
 OpenBabel04072215363D

 63 66  0  0  0  0  0  0  0  0999 V2000
    4.8389    0.5563    2.3384 C   0  0  0  0  0  0  0  0  0  0  0  0
    4.4235    1.1286    0.9867 C   0  0  0  0  0  0  0  0  0  0  0  0
    4.7937    0.3031   -0.1778 N   0  0  0  0  0  0  0  0  0  0  0  0
    4.3180   -1.0905   -0.0976 C   0  0  0  0  0  0  0  0  0  0  0  0
    2.8049   -1.2966   -0.1483 C   0  0  0  0  0  0  0  0  0  0  0  0
    4.3593    0.9308   -1.4485 C   0  0  0  0  0  0  0  0  0  0  0  0
    4.9478    2.3216   -1.7168 C   0  0  0  0  0  0  0  0  0  0  0  0
    6.3930    2.3246   -1.7518 N   0  0  0  0  0  0  0  0  0  0  0  0
    7.0449    3.5092   -1.9957 C   0  0  0  0  0  0  0  0  0  0  0  0
    6.4266    4.5464   -2.2264 O   0  0  0  0  0  0  0  0  0  0  0  0
    8.5055    3.4822   -1.8943 C   0  0  0  0  0  0  0  0  0  0  0  0
    9.4077    2.4748   -2.2181 C   0  0  0  0  0  0  0  0  0  0  0  0
    9.2078    1.1086   -2.7717 C   0  0  0  0  0  0  0  0  0  0  0  0
   10.6890    2.9668   -2.0061 N   0  0  0  0  0  0  0  0  0  0  0  0
   10.6308    4.2626   -1.5726 C   0  0  0  0  0  0  0  0  0  0  0  0
    9.2953    4.5980   -1.4857 C   0  0  0  0  0  0  0  0  0  0  0  0
    8.7686    5.9184   -1.0539 C   0  0  0  0  0  0  0  0  0  0  0  0
    9.8224    6.9246   -0.6382 C   0  0  0  0  0  0  0  0  0  0  0  0
   11.2930    6.5345   -0.7802 C   0  0  0  0  0  0  0  0  0  0  0  0
   11.7160    5.1428   -1.2587 C   0  0  0  0  0  0  0  0  0  0  0  0
   13.0474    4.8794   -1.3530 C   0  0  0  0  0  0  0  0  0  0  0  0
   13.7634    3.6122   -1.8007 C   0  0  0  0  0  0  0  0  0  0  0  0
   13.2789    2.5580   -2.1718 O   0  0  0  0  0  0  0  0  0  0  0  0
   15.1203    3.8913   -1.7034 N   0  0  0  0  0  0  0  0  0  0  0  0
   15.3599    5.1730   -1.2372 C   0  0  0  0  0  0  0  0  0  0  0  0
   16.5932    5.7702   -1.0225 C   0  0  0  0  0  0  0  0  0  0  0  0
   16.6193    7.0879   -0.5453 C   0  0  0  0  0  0  0  0  0  0  0  0
   15.4235    7.7814   -0.3083 C   0  0  0  0  0  0  0  0  0  0  0  0
   15.3680    9.1916    0.2066 C   0  0  0  0  0  0  0  0  0  0  0  0
   14.2019    7.1432   -0.5525 C   0  0  0  0  0  0  0  0  0  0  0  0
   14.1548    5.8343   -1.0139 C   0  0  0  0  0  0  0  0  0  0  0  0
    4.7402    1.3274    3.1104 H   0  0  0  0  0  0  0  0  0  0  0  0
    5.8836    0.2289    2.3285 H   0  0  0  0  0  0  0  0  0  0  0  0
    4.2058   -0.2857    2.6335 H   0  0  0  0  0  0  0  0  0  0  0  0
    4.9344    2.0944    0.9127 H   0  0  0  0  0  0  0  0  0  0  0  0
    3.3476    1.3397    0.9988 H   0  0  0  0  0  0  0  0  0  0  0  0
    4.7132   -1.5645    0.8076 H   0  0  0  0  0  0  0  0  0  0  0  0
    4.7696   -1.6610   -0.9200 H   0  0  0  0  0  0  0  0  0  0  0  0
    2.2718   -0.6360    0.5409 H   0  0  0  0  0  0  0  0  0  0  0  0
    2.5606   -2.3272    0.1293 H   0  0  0  0  0  0  0  0  0  0  0  0
    2.4158   -1.1296   -1.1582 H   0  0  0  0  0  0  0  0  0  0  0  0
    3.2668    1.0160   -1.4867 H   0  0  0  0  0  0  0  0  0  0  0  0
    4.6663    0.2824   -2.2796 H   0  0  0  0  0  0  0  0  0  0  0  0
    4.6152    3.0512   -0.9695 H   0  0  0  0  0  0  0  0  0  0  0  0
    4.5889    2.6900   -2.6854 H   0  0  0  0  0  0  0  0  0  0  0  0
    6.8890    1.6033   -1.2423 H   0  0  0  0  0  0  0  0  0  0  0  0
    8.1585    0.9065   -3.0031 H   0  0  0  0  0  0  0  0  0  0  0  0
    9.5464    0.3516   -2.0577 H   0  0  0  0  0  0  0  0  0  0  0  0
    9.7683    0.9870   -3.7039 H   0  0  0  0  0  0  0  0  0  0  0  0
   11.5453    2.4463   -2.1847 H   0  0  0  0  0  0  0  0  0  0  0  0
    8.0798    5.7701   -0.2128 H   0  0  0  0  0  0  0  0  0  0  0  0
    8.1818    6.3567   -1.8692 H   0  0  0  0  0  0  0  0  0  0  0  0
    9.6429    7.2164    0.4055 H   0  0  0  0  0  0  0  0  0  0  0  0
    9.6598    7.8548   -1.2005 H   0  0  0  0  0  0  0  0  0  0  0  0
   11.7167    6.6751    0.2217 H   0  0  0  0  0  0  0  0  0  0  0  0
   11.7131    7.2602   -1.4877 H   0  0  0  0  0  0  0  0  0  0  0  0
   15.8226    3.2061   -1.9409 H   0  0  0  0  0  0  0  0  0  0  0  0
   17.5217    5.2414   -1.2069 H   0  0  0  0  0  0  0  0  0  0  0  0
   17.5717    7.5774   -0.3585 H   0  0  0  0  0  0  0  0  0  0  0  0
   16.3614    9.6178    0.3591 H   0  0  0  0  0  0  0  0  0  0  0  0
   14.8307    9.2150    1.1626 H   0  0  0  0  0  0  0  0  0  0  0  0
   14.8255    9.8252   -0.5057 H   0  0  0  0  0  0  0  0  0  0  0  0
   13.3238    7.7350   -0.3523 H   0  0  0  0  0  0  0  0  0  0  0  0
  1  2  1  0  0  0  0
  1 32  1  0  0  0  0
  1 33  1  0  0  0  0
  1 34  1  0  0  0  0
  2  3  1  0  0  0  0
  2 35  1  0  0  0  0
  2 36  1  0  0  0  0
  3  4  1  0  0  0  0
  3  6  1  0  0  0  0
  4  5  1  0  0  0  0
  4 37  1  0  0  0  0
  4 38  1  0  0  0  0
  5 39  1  0  0  0  0
  5 40  1  0  0  0  0
  5 41  1  0  0  0  0
  6  7  1  0  0  0  0
  6 42  1  0  0  0  0
  6 43  1  0  0  0  0
  7  8  1  0  0  0  0
  7 44  1  0  0  0  0
  7 45  1  0  0  0  0
  8  9  1  0  0  0  0
  8 46  1  0  0  0  0
  9 10  2  0  0  0  0
  9 11  1  0  0  0  0
 11 12  2  0  0  0  0
 11 16  1  0  0  0  0
 12 13  1  0  0  0  0
 12 14  1  0  0  0  0
 13 47  1  0  0  0  0
 13 48  1  0  0  0  0
 13 49  1  0  0  0  0
 14 15  1  0  0  0  0
 14 50  1  0  0  0  0
 15 16  2  0  0  0  0
 15 20  1  0  0  0  0
 16 17  1  0  0  0  0
 17 18  1  0  0  0  0
 17 51  1  0  0  0  0
 17 52  1  0  0  0  0
 18 19  1  0  0  0  0
 18 53  1  0  0  0  0
 18 54  1  0  0  0  0
 19 20  1  0  0  0  0
 19 55  1  0  0  0  0
 19 56  1  0  0  0  0
 20 21  2  0  0  0  0
 21 22  1  0  0  0  0
 21 31  1  0  0  0  0
 22 23  2  0  0  0  0
 22 24  1  0  0  0  0
 24 25  1  0  0  0  0
 24 57  1  0  0  0  0
 25 26  1  0  0  0  0
 25 31  2  0  0  0  0
 26 27  2  0  0  0  0
 26 58  1  0  0  0  0
 27 28  1  0  0  0  0
 27 59  1  0  0  0  0
 28 29  1  0  0  0  0
 28 30  2  0  0  0  0
 29 60  1  0  0  0  0
 29 61  1  0  0  0  0
 29 62  1  0  0  0  0
 30 31  1  0  0  0  0
 30 63  1  0  0  0  0
M  END
$$$$
