CHEMBL3975634
 OpenBabel04072215373D

 58 65  0  0  1  0  0  0  0  0999 V2000
    2.1046    1.0677    1.5163 C   0  0  0  0  0  0  0  0  0  0  0  0
    2.4362   -0.3397    1.5385 N   0  0  0  0  0  0  0  0  0  0  0  0
    1.6193   -1.2208    0.6802 C   0  0  1  0  0  0  0  0  0  0  0  0
    1.6146   -0.8696   -0.9114 C   0  0  0  0  0  0  0  0  0  0  0  0
    1.7083   -2.0341   -1.9981 C   0  0  3  0  0  0  0  0  0  0  0  0
    2.8168   -2.5623   -1.2564 O   0  0  0  0  0  0  0  0  0  0  0  0
    2.2311   -3.3979   -0.2514 C   0  0  3  0  0  0  0  0  0  0  0  0
    1.9825   -2.7084    1.0595 C   0  0  1  0  0  0  0  0  0  0  0  0
    2.7802   -2.9562    2.2153 O   0  0  0  0  0  0  0  0  0  0  0  0
    4.1768   -3.0761    2.0627 C   0  0  0  0  0  0  0  0  0  0  0  0
    2.7218   -4.6566   -0.6286 N   0  0  0  0  0  0  0  0  0  0  0  0
    4.0228   -5.0419   -0.8598 C   0  0  0  0  0  0  0  0  0  0  0  0
    5.2088   -4.3111   -0.9516 C   0  0  0  0  0  0  0  0  0  0  0  0
    6.3268   -5.0349   -0.6413 C   0  0  0  0  0  0  0  0  0  0  0  0
    6.2113   -6.4042   -0.3842 C   0  0  0  0  0  0  0  0  0  0  0  0
    5.0665   -7.1335   -0.7848 C   0  0  0  0  0  0  0  0  0  0  0  0
    3.9661   -6.4063   -1.2626 C   0  0  0  0  0  0  0  0  0  0  0  0
    2.7668   -6.5074   -2.1114 C   0  0  0  0  0  0  0  0  0  0  0  0
    2.8712   -7.0178   -3.4534 C   0  0  0  0  0  0  0  0  0  0  0  0
    2.6013   -6.0126   -4.4318 C   0  0  0  0  0  0  0  0  0  0  0  0
    1.8382   -4.8854   -4.0338 C   0  0  0  0  0  0  0  0  0  0  0  0
    0.4003   -4.7596   -4.1761 C   0  0  0  0  0  0  0  0  0  0  0  0
   -0.5541   -5.5595   -4.8506 C   0  0  0  0  0  0  0  0  0  0  0  0
   -1.9061   -5.4652   -4.5182 C   0  0  0  0  0  0  0  0  0  0  0  0
   -2.3416   -4.5230   -3.5902 C   0  0  0  0  0  0  0  0  0  0  0  0
   -1.4597   -3.6086   -2.9743 C   0  0  0  0  0  0  0  0  0  0  0  0
   -0.0738   -3.7086   -3.2262 C   0  0  0  0  0  0  0  0  0  0  0  0
    1.0194   -3.2600   -2.4575 N   0  0  0  0  0  0  0  0  0  0  0  0
    1.8084   -4.3564   -2.7619 C   0  0  0  0  0  0  0  0  0  0  0  0
    2.2394   -5.2395   -1.7379 C   0  0  0  0  0  0  0  0  0  0  0  0
    3.8683   -6.0207   -5.1075 C   0  0  0  0  0  0  0  0  0  0  0  0
    4.3460   -4.8809   -5.6192 O   0  0  0  0  0  0  0  0  0  0  0  0
    4.6483   -7.0536   -4.9763 N   0  0  0  0  0  0  0  0  0  0  0  0
    3.8862   -7.9392   -4.0276 C   0  0  0  0  0  0  0  0  0  0  0  0
    2.5722    1.5674    2.3709 H   0  0  0  0  0  0  0  0  0  0  0  0
    1.0252    1.2354    1.5816 H   0  0  0  0  0  0  0  0  0  0  0  0
    2.5011    1.5404    0.6134 H   0  0  0  0  0  0  0  0  0  0  0  0
    2.3742   -0.7006    2.4977 H   0  0  0  0  0  0  0  0  0  0  0  0
    0.5658   -1.0829    0.9761 H   0  0  0  0  0  0  0  0  0  0  0  0
    2.6129   -0.3740   -1.0304 H   0  0  0  0  0  0  0  0  0  0  0  0
    0.9298   -0.0595   -1.1704 H   0  0  0  0  0  0  0  0  0  0  0  0
    2.0898   -1.5853   -2.9263 H   0  0  0  0  0  0  0  0  0  0  0  0
    1.1486   -3.5703   -0.4145 H   0  0  0  0  0  0  0  0  0  0  0  0
    1.0312   -3.1147    1.4384 H   0  0  0  0  0  0  0  0  0  0  0  0
    4.5510   -3.7224    2.8631 H   0  0  0  0  0  0  0  0  0  0  0  0
    4.6609   -2.1027    2.1369 H   0  0  0  0  0  0  0  0  0  0  0  0
    4.4544   -3.5441    1.1382 H   0  0  0  0  0  0  0  0  0  0  0  0
    5.2249   -3.2352   -1.0806 H   0  0  0  0  0  0  0  0  0  0  0  0
    7.2716   -4.5093   -0.4999 H   0  0  0  0  0  0  0  0  0  0  0  0
    7.0335   -6.9086    0.1181 H   0  0  0  0  0  0  0  0  0  0  0  0
    5.0064   -8.2038   -0.6385 H   0  0  0  0  0  0  0  0  0  0  0  0
   -0.2218   -6.3597   -5.5078 H   0  0  0  0  0  0  0  0  0  0  0  0
   -2.6054   -6.1897   -4.9331 H   0  0  0  0  0  0  0  0  0  0  0  0
   -3.3902   -4.5437   -3.2910 H   0  0  0  0  0  0  0  0  0  0  0  0
   -1.8438   -2.9744   -2.1799 H   0  0  0  0  0  0  0  0  0  0  0  0
    5.3121   -4.9888   -5.6784 H   0  0  0  0  0  0  0  0  0  0  0  0
    4.5322   -8.4073   -3.2872 H   0  0  0  0  0  0  0  0  0  0  0  0
    3.3833   -8.7083   -4.6279 H   0  0  0  0  0  0  0  0  0  0  0  0
  1  2  1  0  0  0  0
  1 35  1  0  0  0  0
  1 36  1  0  0  0  0
  1 37  1  0  0  0  0
  2 38  1  0  0  0  0
  3  4  1  0  0  0  0
  3  8  1  0  0  0  0
  3  2  1  0  0  0  0
  3 39  1  1  0  0  0
  4  5  1  0  0  0  0
  4 40  1  0  0  0  0
  4 41  1  0  0  0  0
  5  6  1  0  0  0  0
  5 28  1  0  0  0  0
  5 42  1  0  0  0  0
  6  7  1  0  0  0  0
  7  8  1  0  0  0  0
  7 11  1  0  0  0  0
  7 43  1  0  0  0  0
  8  9  1  0  0  0  0
  8 44  1  1  0  0  0
  9 10  1  0  0  0  0
 10 45  1  0  0  0  0
 10 46  1  0  0  0  0
 10 47  1  0  0  0  0
 11 12  1  0  0  0  0
 11 30  1  0  0  0  0
 12 13  1  0  0  0  0
 12 17  2  0  0  0  0
 13 14  2  0  0  0  0
 13 48  1  0  0  0  0
 14 15  1  0  0  0  0
 14 49  1  0  0  0  0
 15 16  2  0  0  0  0
 15 50  1  0  0  0  0
 16 17  1  0  0  0  0
 16 51  1  0  0  0  0
 17 18  1  0  0  0  0
 18 19  1  0  0  0  0
 18 30  2  0  0  0  0
 19 20  2  0  0  0  0
 19 34  1  0  0  0  0
 20 21  1  0  0  0  0
 20 31  1  0  0  0  0
 21 22  1  0  0  0  0
 21 29  2  0  0  0  0
 22 23  1  0  0  0  0
 22 27  2  0  0  0  0
 23 24  2  0  0  0  0
 23 52  1  0  0  0  0
 24 25  1  0  0  0  0
 24 53  1  0  0  0  0
 25 26  2  0  0  0  0
 25 54  1  0  0  0  0
 26 27  1  0  0  0  0
 26 55  1  0  0  0  0
 27 28  1  0  0  0  0
 28 29  1  0  0  0  0
 29 30  1  0  0  0  0
 31 32  1  0  0  0  0
 31 33  2  0  0  0  0
 32 56  1  0  0  0  0
 33 34  1  0  0  0  0
 34 57  1  0  0  0  0
 34 58  1  0  0  0  0
M  END
$$$$
