CHEMBL3646210
 OpenBabel04072215373D

 62 66  0  0  1  0  0  0  0  0999 V2000
   -6.0186   -1.4906   17.0889 C   0  0  0  0  0  0  0  0  0  0  0  0
   -6.6332   -1.4595   15.7212 C   0  0  0  0  0  0  0  0  0  0  0  0
   -6.4802   -0.3264   14.9141 C   0  0  0  0  0  0  0  0  0  0  0  0
   -7.0476   -0.2912   13.6474 C   0  0  0  0  0  0  0  0  0  0  0  0
   -7.7697   -1.3854   13.1769 C   0  0  0  0  0  0  0  0  0  0  0  0
   -7.9301   -2.5382   13.9542 C   0  0  0  0  0  0  0  0  0  0  0  0
   -8.6520   -3.6768   13.5164 N   0  0  0  0  0  0  0  0  0  0  0  0
   -9.1779   -3.8509   12.2531 C   0  0  0  0  0  0  0  0  0  0  0  0
   -9.0385   -3.0764   11.3151 O   0  0  0  0  0  0  0  0  0  0  0  0
   -9.9505   -5.0108   12.1614 N   0  0  0  0  0  0  0  0  0  0  0  0
  -10.5611   -5.3354   10.9273 C   0  0  0  0  0  0  0  0  0  0  0  0
   -9.8584   -5.2126    9.7276 C   0  0  0  0  0  0  0  0  0  0  0  0
  -10.5224   -5.3279    8.5082 C   0  0  0  0  0  0  0  0  0  0  0  0
  -11.8952   -5.6123    8.4643 C   0  0  0  0  0  0  0  0  0  0  0  0
  -12.5995   -5.6432    7.1749 C   0  0  0  0  0  0  0  0  0  0  0  0
  -11.9538   -6.2114    6.0956 C   0  0  0  0  0  0  0  0  0  0  0  0
  -12.8733   -6.2045    4.6862 S   0  0  0  0  0  0  0  0  0  0  0  0
  -14.1951   -5.3764    5.4365 C   0  0  0  0  0  0  0  0  0  0  0  0
  -15.4079   -4.9830    4.8297 C   0  0  0  0  0  0  0  0  0  0  0  0
  -15.6689   -5.2112    3.4212 C   0  0  0  0  0  0  0  0  0  0  0  0
  -14.8303   -5.0851    2.2885 C   0  0  0  0  0  0  0  0  0  0  0  0
  -15.4413   -5.4139    1.1496 N   0  0  0  0  0  0  0  0  0  0  0  0
  -16.6900   -5.7272    1.5397 N   0  0  0  0  0  0  0  0  0  0  0  0
  -17.6852   -6.0138    0.5336 C   0  0  0  0  0  0  0  0  0  0  0  0
  -17.9604   -7.4988    0.2875 C   0  0  2  0  0  0  0  0  0  0  0  0
  -16.7499   -8.3063   -0.1665 C   0  0  0  0  0  0  0  0  0  0  0  0
  -18.9728   -7.6083   -0.7247 O   0  0  0  0  0  0  0  0  0  0  0  0
  -16.8822   -5.6032    2.8882 C   0  0  0  0  0  0  0  0  0  0  0  0
  -16.3180   -4.3642    5.6653 C   0  0  0  0  0  0  0  0  0  0  0  0
  -16.1076   -4.1067    6.9690 N   0  0  0  0  0  0  0  0  0  0  0  0
  -14.9403   -4.4562    7.5479 C   0  0  0  0  0  0  0  0  0  0  0  0
  -14.8467   -4.0770    8.8817 N   0  0  0  0  0  0  0  0  0  0  0  0
  -13.9292   -5.1316    6.8029 C   0  0  0  0  0  0  0  0  0  0  0  0
  -12.5564   -5.8664    9.6717 C   0  0  0  0  0  0  0  0  0  0  0  0
  -11.9007   -5.7127   10.9006 C   0  0  0  0  0  0  0  0  0  0  0  0
   -7.3580   -2.5624   15.2340 C   0  0  0  0  0  0  0  0  0  0  0  0
   -5.5103   -0.5469   17.3164 H   0  0  0  0  0  0  0  0  0  0  0  0
   -5.2771   -2.2925   17.1522 H   0  0  0  0  0  0  0  0  0  0  0  0
   -6.7910   -1.6429   17.8485 H   0  0  0  0  0  0  0  0  0  0  0  0
   -5.9203    0.5354   15.2655 H   0  0  0  0  0  0  0  0  0  0  0  0
   -6.9316    0.5856   13.0160 H   0  0  0  0  0  0  0  0  0  0  0  0
   -8.1947   -1.2935   12.1835 H   0  0  0  0  0  0  0  0  0  0  0  0
   -8.6703   -4.4734   14.1336 H   0  0  0  0  0  0  0  0  0  0  0  0
  -10.4737   -5.2318   12.9964 H   0  0  0  0  0  0  0  0  0  0  0  0
   -8.7958   -4.9755    9.7263 H   0  0  0  0  0  0  0  0  0  0  0  0
   -9.9475   -5.1564    7.6011 H   0  0  0  0  0  0  0  0  0  0  0  0
  -10.9676   -6.6546    6.0646 H   0  0  0  0  0  0  0  0  0  0  0  0
  -13.7954   -4.7670    2.2425 H   0  0  0  0  0  0  0  0  0  0  0  0
  -17.3756   -5.5228   -0.3979 H   0  0  0  0  0  0  0  0  0  0  0  0
  -18.6105   -5.5108    0.8401 H   0  0  0  0  0  0  0  0  0  0  0  0
  -18.3687   -7.9561    1.1960 H   0  0  0  0  0  0  0  0  0  0  0  0
  -16.2227   -7.8042   -0.9846 H   0  0  0  0  0  0  0  0  0  0  0  0
  -17.0662   -9.2832   -0.5505 H   0  0  0  0  0  0  0  0  0  0  0  0
  -16.0457   -8.4710    0.6541 H   0  0  0  0  0  0  0  0  0  0  0  0
  -18.5728   -7.3783   -1.5802 H   0  0  0  0  0  0  0  0  0  0  0  0
  -17.8427   -5.8055    3.3406 H   0  0  0  0  0  0  0  0  0  0  0  0
  -17.2810   -4.0179    5.2994 H   0  0  0  0  0  0  0  0  0  0  0  0
  -15.6111   -3.4450    9.0974 H   0  0  0  0  0  0  0  0  0  0  0  0
  -13.9289   -3.7378    9.1414 H   0  0  0  0  0  0  0  0  0  0  0  0
  -13.6091   -6.1409    9.6767 H   0  0  0  0  0  0  0  0  0  0  0  0
  -12.4749   -5.8123   11.8166 H   0  0  0  0  0  0  0  0  0  0  0  0
   -7.4694   -3.4398   15.8675 H   0  0  0  0  0  0  0  0  0  0  0  0
  1  2  1  0  0  0  0
  1 37  1  0  0  0  0
  1 38  1  0  0  0  0
  1 39  1  0  0  0  0
  2  3  1  0  0  0  0
  2 36  2  0  0  0  0
  3  4  2  0  0  0  0
  3 40  1  0  0  0  0
  4  5  1  0  0  0  0
  4 41  1  0  0  0  0
  5  6  2  0  0  0  0
  5 42  1  0  0  0  0
  6  7  1  0  0  0  0
  6 36  1  0  0  0  0
  7  8  1  0  0  0  0
  7 43  1  0  0  0  0
  8  9  2  0  0  0  0
  8 10  1  0  0  0  0
 10 11  1  0  0  0  0
 10 44  1  0  0  0  0
 11 12  1  0  0  0  0
 11 35  2  0  0  0  0
 12 13  2  0  0  0  0
 12 45  1  0  0  0  0
 13 14  1  0  0  0  0
 13 46  1  0  0  0  0
 14 15  1  0  0  0  0
 14 34  2  0  0  0  0
 15 16  2  0  0  0  0
 15 33  1  0  0  0  0
 16 17  1  0  0  0  0
 16 47  1  0  0  0  0
 17 18  1  0  0  0  0
 18 19  1  0  0  0  0
 18 33  2  0  0  0  0
 19 20  1  0  0  0  0
 19 29  2  0  0  0  0
 20 21  1  0  0  0  0
 20 28  2  0  0  0  0
 21 22  2  0  0  0  0
 21 48  1  0  0  0  0
 22 23  1  0  0  0  0
 23 24  1  0  0  0  0
 23 28  1  0  0  0  0
 24 49  1  0  0  0  0
 24 50  1  0  0  0  0
 25 27  1  0  0  0  0
 25 26  1  0  0  0  0
 25 24  1  0  0  0  0
 25 51  1  1  0  0  0
 26 52  1  0  0  0  0
 26 53  1  0  0  0  0
 26 54  1  0  0  0  0
 27 55  1  0  0  0  0
 28 56  1  0  0  0  0
 29 30  1  0  0  0  0
 29 57  1  0  0  0  0
 30 31  2  0  0  0  0
 31 32  1  0  0  0  0
 31 33  1  0  0  0  0
 32 58  1  0  0  0  0
 32 59  1  0  0  0  0
 34 35  1  0  0  0  0
 34 60  1  0  0  0  0
 35 61  1  0  0  0  0
 36 62  1  0  0  0  0
M  END
$$$$
