CHEMBL3955385
 OpenBabel04072215373D

 61 65  0  0  0  0  0  0  0  0999 V2000
    1.7321    0.8465   -0.4849 C   0  0  0  0  0  0  0  0  0  0  0  0
    2.4399   -0.3576   -0.1999 O   0  0  0  0  0  0  0  0  0  0  0  0
    3.1415   -0.9005   -1.2446 C   0  0  0  0  0  0  0  0  0  0  0  0
    2.8889   -0.6625   -2.5845 C   0  0  0  0  0  0  0  0  0  0  0  0
    3.6681   -1.2934   -3.5547 C   0  0  0  0  0  0  0  0  0  0  0  0
    3.4370   -1.1871   -4.9052 O   0  0  0  0  0  0  0  0  0  0  0  0
    2.3068   -0.4082   -5.3039 C   0  0  0  0  0  0  0  0  0  0  0  0
    4.7778   -2.0830   -3.1700 C   0  0  0  0  0  0  0  0  0  0  0  0
    5.1184   -2.2696   -1.8181 C   0  0  0  0  0  0  0  0  0  0  0  0
    6.3000   -2.9632   -1.3932 N   0  0  0  0  0  0  0  0  0  0  0  0
    6.7208   -2.7289    0.0965 C   0  0  0  0  0  0  0  0  0  0  0  0
    7.1524   -1.2715    0.1013 C   0  0  0  0  0  0  0  0  0  0  0  0
    7.5226   -0.0213    0.1053 C   0  0  0  0  0  0  0  0  0  0  0  0
    7.9313    1.3441    0.1851 C   0  0  0  0  0  0  0  0  0  0  0  0
    7.0042    2.3633    0.3540 C   0  0  0  0  0  0  0  0  0  0  0  0
    7.4749    3.6672    0.4879 C   0  0  0  0  0  0  0  0  0  0  0  0
    8.8448    3.9037    0.4441 C   0  0  0  0  0  0  0  0  0  0  0  0
    9.6938    2.8175    0.2633 C   0  0  0  0  0  0  0  0  0  0  0  0
   11.1200    3.0139    0.1865 C   0  0  0  0  0  0  0  0  0  0  0  0
   12.2567    3.2138    0.1480 N   0  0  0  0  0  0  0  0  0  0  0  0
    9.2649    1.5392    0.1390 N   0  0  0  0  0  0  0  0  0  0  0  0
    7.4628   -3.3675   -2.1553 C   0  0  0  0  0  0  0  0  0  0  0  0
    7.9748   -4.5974   -1.7554 C   0  0  0  0  0  0  0  0  0  0  0  0
    9.3119   -4.8773   -1.9211 C   0  0  0  0  0  0  0  0  0  0  0  0
   10.1435   -4.0392   -2.6352 C   0  0  0  0  0  0  0  0  0  0  0  0
   11.4300   -4.3678   -2.4935 N   0  0  0  0  0  0  0  0  0  0  0  0
   12.2919   -3.7379   -3.3010 C   0  0  0  0  0  0  0  0  0  0  0  0
   11.8760   -2.8921   -4.3025 C   0  0  0  0  0  0  0  0  0  0  0  0
   12.8872   -2.6256   -5.3314 C   0  0  0  0  0  0  0  0  0  0  0  0
   13.1164   -3.2764   -6.5773 C   0  0  0  0  0  0  0  0  0  0  0  0
   14.3042   -2.9712   -7.1247 N   0  0  0  0  0  0  0  0  0  0  0  0
   14.8528   -2.1380   -6.2255 N   0  0  0  0  0  0  0  0  0  0  0  0
   16.0115   -1.3431   -6.5624 C   0  0  0  0  0  0  0  0  0  0  0  0
   14.1267   -2.0561   -5.0676 C   0  0  0  0  0  0  0  0  0  0  0  0
   10.5606   -2.4582   -4.3601 N   0  0  0  0  0  0  0  0  0  0  0  0
    9.6383   -2.9838   -3.4251 C   0  0  0  0  0  0  0  0  0  0  0  0
    8.2549   -2.6172   -3.0713 C   0  0  0  0  0  0  0  0  0  0  0  0
    4.1907   -1.7521   -0.8845 C   0  0  0  0  0  0  0  0  0  0  0  0
    1.4520    1.3083    0.4669 H   0  0  0  0  0  0  0  0  0  0  0  0
    0.8122    0.6316   -1.0378 H   0  0  0  0  0  0  0  0  0  0  0  0
    2.3561    1.5667   -1.0272 H   0  0  0  0  0  0  0  0  0  0  0  0
    2.0742   -0.0088   -2.8639 H   0  0  0  0  0  0  0  0  0  0  0  0
    2.2095   -0.4707   -6.3916 H   0  0  0  0  0  0  0  0  0  0  0  0
    2.4484    0.6475   -5.0443 H   0  0  0  0  0  0  0  0  0  0  0  0
    1.3751   -0.7929   -4.8708 H   0  0  0  0  0  0  0  0  0  0  0  0
    5.3695   -2.5489   -3.9531 H   0  0  0  0  0  0  0  0  0  0  0  0
    7.5631   -3.3621    0.3933 H   0  0  0  0  0  0  0  0  0  0  0  0
    5.9038   -2.9431    0.7884 H   0  0  0  0  0  0  0  0  0  0  0  0
    5.9432    2.1481    0.3924 H   0  0  0  0  0  0  0  0  0  0  0  0
    6.7780    4.4895    0.6333 H   0  0  0  0  0  0  0  0  0  0  0  0
    9.2357    4.9128    0.5454 H   0  0  0  0  0  0  0  0  0  0  0  0
    7.3672   -5.2802   -1.1572 H   0  0  0  0  0  0  0  0  0  0  0  0
    9.7227   -5.7477   -1.4459 H   0  0  0  0  0  0  0  0  0  0  0  0
   13.3320   -4.0082   -3.1547 H   0  0  0  0  0  0  0  0  0  0  0  0
   12.4960   -3.9992   -7.0934 H   0  0  0  0  0  0  0  0  0  0  0  0
   16.2904   -1.5105   -7.6062 H   0  0  0  0  0  0  0  0  0  0  0  0
   16.8412   -1.6010   -5.9001 H   0  0  0  0  0  0  0  0  0  0  0  0
   15.7305   -0.2947   -6.4270 H   0  0  0  0  0  0  0  0  0  0  0  0
   14.5431   -1.5900   -4.1850 H   0  0  0  0  0  0  0  0  0  0  0  0
    7.8468   -1.6913   -3.5080 H   0  0  0  0  0  0  0  0  0  0  0  0
    4.2719   -1.9658    0.1750 H   0  0  0  0  0  0  0  0  0  0  0  0
  1  2  1  0  0  0  0
  1 39  1  0  0  0  0
  1 40  1  0  0  0  0
  1 41  1  0  0  0  0
  2  3  1  0  0  0  0
  3  4  1  0  0  0  0
  3 38  2  0  0  0  0
  4  5  2  0  0  0  0
  4 42  1  0  0  0  0
  5  6  1  0  0  0  0
  5  8  1  0  0  0  0
  6  7  1  0  0  0  0
  7 43  1  0  0  0  0
  7 44  1  0  0  0  0
  7 45  1  0  0  0  0
  8  9  2  0  0  0  0
  8 46  1  0  0  0  0
  9 10  1  0  0  0  0
  9 38  1  0  0  0  0
 10 11  1  0  0  0  0
 10 22  1  0  0  0  0
 11 12  1  0  0  0  0
 11 47  1  0  0  0  0
 11 48  1  0  0  0  0
 12 13  3  0  0  0  0
 13 14  1  0  0  0  0
 14 15  1  0  0  0  0
 14 21  2  0  0  0  0
 15 16  2  0  0  0  0
 15 49  1  0  0  0  0
 16 17  1  0  0  0  0
 16 50  1  0  0  0  0
 17 18  2  0  0  0  0
 17 51  1  0  0  0  0
 18 19  1  0  0  0  0
 18 21  1  0  0  0  0
 19 20  3  0  0  0  0
 22 23  1  0  0  0  0
 22 37  2  0  0  0  0
 23 24  2  0  0  0  0
 23 52  1  0  0  0  0
 24 25  1  0  0  0  0
 24 53  1  0  0  0  0
 25 26  1  0  0  0  0
 25 36  2  0  0  0  0
 26 27  2  0  0  0  0
 27 28  1  0  0  0  0
 27 54  1  0  0  0  0
 28 29  1  0  0  0  0
 28 35  2  0  0  0  0
 29 30  1  0  0  0  0
 29 34  2  0  0  0  0
 30 31  2  0  0  0  0
 30 55  1  0  0  0  0
 31 32  1  0  0  0  0
 32 33  1  0  0  0  0
 32 34  1  0  0  0  0
 33 56  1  0  0  0  0
 33 57  1  0  0  0  0
 33 58  1  0  0  0  0
 34 59  1  0  0  0  0
 35 36  1  0  0  0  0
 36 37  1  0  0  0  0
 37 60  1  0  0  0  0
 38 61  1  0  0  0  0
M  END
$$$$
