CHEMBL3938792
 OpenBabel04072215373D

 46 49  0  0  0  0  0  0  0  0999 V2000
    2.2993   -0.3379   -0.6176 N   0  0  0  0  0  0  0  0  0  0  0  0
    1.8511    0.7772    0.0285 C   0  0  0  0  0  0  0  0  0  0  0  0
    0.6922    1.1564    0.0746 O   0  0  0  0  0  0  0  0  0  0  0  0
    2.8670    1.4197    0.7631 N   0  0  0  0  0  0  0  0  0  0  0  0
    4.1517    1.7988    0.3272 C   0  0  0  0  0  0  0  0  0  0  0  0
    4.6722    1.6892   -1.0495 C   0  0  0  0  0  0  0  0  0  0  0  0
    3.8461    1.8060   -2.1684 C   0  0  0  0  0  0  0  0  0  0  0  0
    4.3411    1.5795   -3.4563 C   0  0  0  0  0  0  0  0  0  0  0  0
    5.6906    1.2946   -3.6712 C   0  0  0  0  0  0  0  0  0  0  0  0
    6.2126    1.0154   -4.9532 N   0  0  0  0  0  0  0  0  0  0  0  0
    5.5962    1.3531   -6.1448 C   0  0  0  0  0  0  0  0  0  0  0  0
    4.6328    2.1095   -6.2472 O   0  0  0  0  0  0  0  0  0  0  0  0
    6.1721    0.7123   -7.2301 N   0  0  0  0  0  0  0  0  0  0  0  0
    5.6968    0.9630   -8.5404 C   0  0  0  0  0  0  0  0  0  0  0  0
    5.4085   -0.1198   -9.3751 C   0  0  0  0  0  0  0  0  0  0  0  0
    4.9161    0.1069  -10.6627 C   0  0  0  0  0  0  0  0  0  0  0  0
    4.7609    1.4111  -11.1262 C   0  0  0  0  0  0  0  0  0  0  0  0
    4.3228    1.5999  -12.3797 F   0  0  0  0  0  0  0  0  0  0  0  0
    5.0627    2.4944  -10.3056 C   0  0  0  0  0  0  0  0  0  0  0  0
    4.9032    4.1073  -10.8879 Cl  0  0  0  0  0  0  0  0  0  0  0  0
    5.5149    2.2729   -9.0047 C   0  0  0  0  0  0  0  0  0  0  0  0
    6.5421    1.2449   -2.5673 C   0  0  0  0  0  0  0  0  0  0  0  0
    6.0379    1.4468   -1.2721 C   0  0  0  0  0  0  0  0  0  0  0  0
    4.7995    2.3308    1.4316 C   0  0  0  0  0  0  0  0  0  0  0  0
    3.9521    2.2414    2.5605 C   0  0  0  0  0  0  0  0  0  0  0  0
    4.1119    2.5644    3.9189 C   0  0  0  0  0  0  0  0  0  0  0  0
    3.0689    2.3016    4.8170 C   0  0  0  0  0  0  0  0  0  0  0  0
    1.8766    1.7467    4.3720 C   0  0  0  0  0  0  0  0  0  0  0  0
    1.6893    1.4423    3.0195 C   0  0  0  0  0  0  0  0  0  0  0  0
    2.7494    1.7005    2.1247 C   0  0  0  0  0  0  0  0  0  0  0  0
    1.6134   -0.9131   -1.0868 H   0  0  0  0  0  0  0  0  0  0  0  0
    3.2203   -0.7209   -0.4521 H   0  0  0  0  0  0  0  0  0  0  0  0
    2.7920    2.0552   -2.0751 H   0  0  0  0  0  0  0  0  0  0  0  0
    3.6274    1.6148   -4.2751 H   0  0  0  0  0  0  0  0  0  0  0  0
    7.1904    0.7681   -5.0173 H   0  0  0  0  0  0  0  0  0  0  0  0
    6.4770   -0.2308   -7.0307 H   0  0  0  0  0  0  0  0  0  0  0  0
    5.5057   -1.1417   -9.0188 H   0  0  0  0  0  0  0  0  0  0  0  0
    4.6465   -0.7233  -11.3083 H   0  0  0  0  0  0  0  0  0  0  0  0
    5.7368    3.1214   -8.3617 H   0  0  0  0  0  0  0  0  0  0  0  0
    7.6064    1.0613   -2.6888 H   0  0  0  0  0  0  0  0  0  0  0  0
    6.7311    1.3999   -0.4349 H   0  0  0  0  0  0  0  0  0  0  0  0
    5.8032    2.7386    1.4334 H   0  0  0  0  0  0  0  0  0  0  0  0
    5.0424    2.9909    4.2808 H   0  0  0  0  0  0  0  0  0  0  0  0
    3.1961    2.5309    5.8720 H   0  0  0  0  0  0  0  0  0  0  0  0
    1.0773    1.5359    5.0774 H   0  0  0  0  0  0  0  0  0  0  0  0
    0.7585    1.0005    2.6803 H   0  0  0  0  0  0  0  0  0  0  0  0
  1  2  1  0  0  0  0
  1 31  1  0  0  0  0
  1 32  1  0  0  0  0
  2  3  2  0  0  0  0
  2  4  1  0  0  0  0
  4  5  1  0  0  0  0
  4 30  1  0  0  0  0
  5  6  1  0  0  0  0
  5 24  2  0  0  0  0
  6  7  1  0  0  0  0
  6 23  2  0  0  0  0
  7  8  2  0  0  0  0
  7 33  1  0  0  0  0
  8  9  1  0  0  0  0
  8 34  1  0  0  0  0
  9 10  1  0  0  0  0
  9 22  2  0  0  0  0
 10 11  1  0  0  0  0
 10 35  1  0  0  0  0
 11 12  2  0  0  0  0
 11 13  1  0  0  0  0
 13 14  1  0  0  0  0
 13 36  1  0  0  0  0
 14 15  1  0  0  0  0
 14 21  2  0  0  0  0
 15 16  2  0  0  0  0
 15 37  1  0  0  0  0
 16 17  1  0  0  0  0
 16 38  1  0  0  0  0
 17 18  1  0  0  0  0
 17 19  2  0  0  0  0
 19 20  1  0  0  0  0
 19 21  1  0  0  0  0
 21 39  1  0  0  0  0
 22 23  1  0  0  0  0
 22 40  1  0  0  0  0
 23 41  1  0  0  0  0
 24 25  1  0  0  0  0
 24 42  1  0  0  0  0
 25 26  1  0  0  0  0
 25 30  2  0  0  0  0
 26 27  2  0  0  0  0
 26 43  1  0  0  0  0
 27 28  1  0  0  0  0
 27 44  1  0  0  0  0
 28 29  2  0  0  0  0
 28 45  1  0  0  0  0
 29 30  1  0  0  0  0
 29 46  1  0  0  0  0
M  END
$$$$
