CHEMBL4776554
 OpenBabel04072215383D

 91 96  0  0  0  0  0  0  0  0999 V2000
    1.1656    0.6886    0.9398 C   0  0  0  0  0  0  0  0  0  0  0  0
    0.9999    1.5175   -0.2401 O   0  0  0  0  0  0  0  0  0  0  0  0
    2.0042    2.4198   -0.5341 C   0  0  0  0  0  0  0  0  0  0  0  0
    2.8930    2.1667   -1.6171 C   0  0  0  0  0  0  0  0  0  0  0  0
    4.0812    2.9449   -1.8587 C   0  0  0  0  0  0  0  0  0  0  0  0
    5.2282    2.6974   -2.6823 C   0  0  0  0  0  0  0  0  0  0  0  0
    5.7000    1.4425   -3.0132 O   0  0  0  0  0  0  0  0  0  0  0  0
    5.0618    0.5374   -3.8087 C   0  0  0  0  0  0  0  0  0  0  0  0
    5.6295   -0.7450   -3.7990 C   0  0  0  0  0  0  0  0  0  0  0  0
    4.9540   -1.8345   -4.3622 C   0  0  0  0  0  0  0  0  0  0  0  0
    3.6900   -1.6607   -4.9299 C   0  0  0  0  0  0  0  0  0  0  0  0
    2.8490   -2.7484   -5.2346 N   0  0  0  0  0  0  0  0  0  0  0  0
    3.1595   -4.0572   -5.6442 C   0  0  0  0  0  0  0  0  0  0  0  0
    4.3372   -4.2289   -6.2976 N   0  0  0  0  0  0  0  0  0  0  0  0
    4.6392   -5.4437   -6.7952 C   0  0  0  0  0  0  0  0  0  0  0  0
    3.8223   -6.5466   -6.6698 C   0  0  0  0  0  0  0  0  0  0  0  0
    2.6223   -6.4006   -5.9827 C   0  0  0  0  0  0  0  0  0  0  0  0
    1.7848   -7.5146   -5.8057 N   0  0  0  0  0  0  0  0  0  0  0  0
    0.5588   -7.3888   -5.2172 C   0  0  0  0  0  0  0  0  0  0  0  0
    0.1066   -6.2632   -4.6407 C   0  0  0  0  0  0  0  0  0  0  0  0
   -1.2482   -6.2282   -4.0724 C   0  0  0  0  0  0  0  0  0  0  0  0
   -1.4900   -6.5986   -2.7410 C   0  0  0  0  0  0  0  0  0  0  0  0
   -2.7894   -6.5582   -2.2241 C   0  0  0  0  0  0  0  0  0  0  0  0
   -3.8418   -6.1564   -3.0397 C   0  0  0  0  0  0  0  0  0  0  0  0
   -5.0839   -6.1074   -2.5404 F   0  0  0  0  0  0  0  0  0  0  0  0
   -3.6240   -5.8083   -4.3670 C   0  0  0  0  0  0  0  0  0  0  0  0
   -2.3276   -5.8474   -4.8846 C   0  0  0  0  0  0  0  0  0  0  0  0
    1.0080   -5.0534   -4.6625 C   0  0  0  0  0  0  0  0  0  0  0  0
    0.6842   -4.0208   -4.0831 O   0  0  0  0  0  0  0  0  0  0  0  0
    2.2892   -5.1460   -5.4319 C   0  0  0  0  0  0  0  0  0  0  0  0
    3.2405   -0.3446   -5.1225 C   0  0  0  0  0  0  0  0  0  0  0  0
    3.9372    0.7439   -4.5853 C   0  0  0  0  0  0  0  0  0  0  0  0
    3.4547    1.9784   -4.7804 F   0  0  0  0  0  0  0  0  0  0  0  0
    6.2384    3.5846   -2.8273 N   0  0  0  0  0  0  0  0  0  0  0  0
    6.1471    4.7108   -2.1275 C   0  0  0  0  0  0  0  0  0  0  0  0
    5.1796    5.0069   -1.2623 N   0  0  0  0  0  0  0  0  0  0  0  0
    4.1865    4.1271   -1.1236 C   0  0  0  0  0  0  0  0  0  0  0  0
    3.2463    4.4226   -0.1429 C   0  0  0  0  0  0  0  0  0  0  0  0
    2.1668    3.5900    0.1882 C   0  0  0  0  0  0  0  0  0  0  0  0
    1.2202    3.8721    1.1354 O   0  0  0  0  0  0  0  0  0  0  0  0
    1.2345    5.1811    1.7120 C   0  0  0  0  0  0  0  0  0  0  0  0
    0.5108    6.2433    0.8426 C   0  0  0  0  0  0  0  0  0  0  0  0
   -0.9852    5.9361    0.7561 C   0  0  0  0  0  0  0  0  0  0  0  0
    0.7853    7.6244    1.4378 C   0  0  0  0  0  0  0  0  0  0  0  0
    1.0096    6.3027   -0.4989 O   0  0  0  0  0  0  0  0  0  0  0  0
    2.3144   -1.3436   -1.3628 C   0  0  0  0  0  0  0  0  0  0  0  0
    3.6020   -1.2154   -0.5881 C   0  0  0  0  0  0  0  0  0  0  0  0
    4.0897   -0.0239   -0.0482 C   0  0  0  0  0  0  0  0  0  0  0  0
    5.4056    0.1950    0.3089 C   0  0  0  0  0  0  0  0  0  0  0  0
    6.2536   -0.8790    0.2215 C   0  0  0  0  0  0  0  0  0  0  0  0
    7.9968   -0.5999    0.2753 S   0  0  0  0  0  0  0  0  0  0  0  0
    8.2197    0.8020    0.6000 O   0  0  0  0  0  0  0  0  0  0  0  0
    8.5735   -1.6743    1.0462 O   0  0  0  0  0  0  0  0  0  0  0  0
    8.4244   -0.7664   -1.2652 O   0  0  0  0  0  0  0  0  0  0  0  0
    5.7428   -2.1589   -0.0294 C   0  0  0  0  0  0  0  0  0  0  0  0
    4.4154   -2.3235   -0.4369 C   0  0  0  0  0  0  0  0  0  0  0  0
    0.2987    0.7631    1.6006 H   0  0  0  0  0  0  0  0  0  0  0  0
    2.0662    0.8729    1.5379 H   0  0  0  0  0  0  0  0  0  0  0  0
    1.1792   -0.3628    0.6306 H   0  0  0  0  0  0  0  0  0  0  0  0
    2.7345    1.2844   -2.2232 H   0  0  0  0  0  0  0  0  0  0  0  0
    6.5801   -0.9236   -3.3019 H   0  0  0  0  0  0  0  0  0  0  0  0
    5.3851   -2.8283   -4.2626 H   0  0  0  0  0  0  0  0  0  0  0  0
    1.8798   -2.5073   -5.4112 H   0  0  0  0  0  0  0  0  0  0  0  0
    5.5858   -5.5020   -7.3248 H   0  0  0  0  0  0  0  0  0  0  0  0
    4.1202   -7.4945   -7.1022 H   0  0  0  0  0  0  0  0  0  0  0  0
    1.9661   -8.3500   -6.3540 H   0  0  0  0  0  0  0  0  0  0  0  0
   -0.0429   -8.2981   -5.2607 H   0  0  0  0  0  0  0  0  0  0  0  0
   -0.6734   -6.9161   -2.0955 H   0  0  0  0  0  0  0  0  0  0  0  0
   -2.9877   -6.8324   -1.1925 H   0  0  0  0  0  0  0  0  0  0  0  0
   -4.4615   -5.5046   -4.9873 H   0  0  0  0  0  0  0  0  0  0  0  0
   -2.1640   -5.5752   -5.9251 H   0  0  0  0  0  0  0  0  0  0  0  0
    2.3165   -0.1474   -5.6552 H   0  0  0  0  0  0  0  0  0  0  0  0
    6.9477    5.4342   -2.2347 H   0  0  0  0  0  0  0  0  0  0  0  0
    3.3981    5.3700    0.3662 H   0  0  0  0  0  0  0  0  0  0  0  0
    2.2478    5.4837    1.9992 H   0  0  0  0  0  0  0  0  0  0  0  0
    0.7017    5.0959    2.6681 H   0  0  0  0  0  0  0  0  0  0  0  0
   -1.4211    5.7547    1.7428 H   0  0  0  0  0  0  0  0  0  0  0  0
   -1.1665    5.0532    0.1309 H   0  0  0  0  0  0  0  0  0  0  0  0
   -1.5276    6.7622    0.2835 H   0  0  0  0  0  0  0  0  0  0  0  0
    0.5901    7.6547    2.5133 H   0  0  0  0  0  0  0  0  0  0  0  0
    0.1832    8.3960    0.9467 H   0  0  0  0  0  0  0  0  0  0  0  0
    1.8338    7.9044    1.2692 H   0  0  0  0  0  0  0  0  0  0  0  0
    0.7255    5.4916   -0.9589 H   0  0  0  0  0  0  0  0  0  0  0  0
    1.8114   -0.3957   -1.5555 H   0  0  0  0  0  0  0  0  0  0  0  0
    1.5968   -1.9961   -0.8615 H   0  0  0  0  0  0  0  0  0  0  0  0
    2.5189   -1.7528   -2.3560 H   0  0  0  0  0  0  0  0  0  0  0  0
    3.4699    0.8259    0.0973 H   0  0  0  0  0  0  0  0  0  0  0  0
    5.7345    1.1970    0.5797 H   0  0  0  0  0  0  0  0  0  0  0  0
    8.3437    0.1061   -1.7058 H   0  0  0  0  0  0  0  0  0  0  0  0
    6.3851   -3.0275    0.0397 H   0  0  0  0  0  0  0  0  0  0  0  0
    4.0233   -3.3036   -0.6848 H   0  0  0  0  0  0  0  0  0  0  0  0
  1  2  1  0  0  0  0
  1 57  1  0  0  0  0
  1 58  1  0  0  0  0
  1 59  1  0  0  0  0
  2  3  1  0  0  0  0
  3  4  1  0  0  0  0
  3 39  2  0  0  0  0
  4  5  2  0  0  0  0
  4 60  1  0  0  0  0
  5  6  1  0  0  0  0
  5 37  1  0  0  0  0
  6  7  1  0  0  0  0
  6 34  2  0  0  0  0
  7  8  1  0  0  0  0
  8  9  1  0  0  0  0
  8 32  2  0  0  0  0
  9 10  2  0  0  0  0
  9 61  1  0  0  0  0
 10 11  1  0  0  0  0
 10 62  1  0  0  0  0
 11 12  1  0  0  0  0
 11 31  2  0  0  0  0
 12 13  1  0  0  0  0
 12 63  1  0  0  0  0
 13 14  1  0  0  0  0
 13 30  2  0  0  0  0
 14 15  2  0  0  0  0
 15 16  1  0  0  0  0
 15 64  1  0  0  0  0
 16 17  2  0  0  0  0
 16 65  1  0  0  0  0
 17 18  1  0  0  0  0
 17 30  1  0  0  0  0
 18 19  1  0  0  0  0
 18 66  1  0  0  0  0
 19 20  2  0  0  0  0
 19 67  1  0  0  0  0
 20 21  1  0  0  0  0
 20 28  1  0  0  0  0
 21 22  1  0  0  0  0
 21 27  2  0  0  0  0
 22 23  2  0  0  0  0
 22 68  1  0  0  0  0
 23 24  1  0  0  0  0
 23 69  1  0  0  0  0
 24 25  1  0  0  0  0
 24 26  2  0  0  0  0
 26 27  1  0  0  0  0
 26 70  1  0  0  0  0
 27 71  1  0  0  0  0
 28 29  2  0  0  0  0
 28 30  1  0  0  0  0
 31 32  1  0  0  0  0
 31 72  1  0  0  0  0
 32 33  1  0  0  0  0
 34 35  1  0  0  0  0
 35 36  2  0  0  0  0
 35 73  1  0  0  0  0
 36 37  1  0  0  0  0
 37 38  2  0  0  0  0
 38 39  1  0  0  0  0
 38 74  1  0  0  0  0
 39 40  1  0  0  0  0
 40 41  1  0  0  0  0
 41 42  1  0  0  0  0
 41 75  1  0  0  0  0
 41 76  1  0  0  0  0
 42 43  1  0  0  0  0
 42 44  1  0  0  0  0
 42 45  1  0  0  0  0
 43 77  1  0  0  0  0
 43 78  1  0  0  0  0
 43 79  1  0  0  0  0
 44 80  1  0  0  0  0
 44 81  1  0  0  0  0
 44 82  1  0  0  0  0
 45 83  1  0  0  0  0
 46 47  1  0  0  0  0
 46 84  1  0  0  0  0
 46 85  1  0  0  0  0
 46 86  1  0  0  0  0
 47 48  1  0  0  0  0
 47 56  2  0  0  0  0
 48 49  2  0  0  0  0
 48 87  1  0  0  0  0
 49 50  1  0  0  0  0
 49 88  1  0  0  0  0
 50 51  1  0  0  0  0
 50 55  2  0  0  0  0
 51 52  2  0  0  0  0
 51 53  2  0  0  0  0
 51 54  1  0  0  0  0
 54 89  1  0  0  0  0
 55 56  1  0  0  0  0
 55 90  1  0  0  0  0
 56 91  1  0  0  0  0
M  END
$$$$
