CHEMBL195567
 OpenBabel04072215363D

 61 65  0  0  0  0  0  0  0  0999 V2000
   -0.5697   -9.2466   -2.1012 C   0  0  0  0  0  0  0  0  0  0  0  0
    0.0626   -8.3786   -3.0354 O   0  0  0  0  0  0  0  0  0  0  0  0
    1.3319   -7.9738   -2.7316 C   0  0  0  0  0  0  0  0  0  0  0  0
    2.0307   -8.2933   -1.5738 C   0  0  0  0  0  0  0  0  0  0  0  0
    3.3351   -7.8233   -1.3947 C   0  0  0  0  0  0  0  0  0  0  0  0
    3.9382   -6.9384   -2.3083 C   0  0  0  0  0  0  0  0  0  0  0  0
    5.1731   -6.2124   -1.9601 C   0  0  0  0  0  0  0  0  0  0  0  0
    5.9974   -5.8988   -3.0064 O   0  0  0  0  0  0  0  0  0  0  0  0
    7.0580   -5.2013   -2.5017 C   0  0  0  0  0  0  0  0  0  0  0  0
    8.0709   -4.7615   -3.2593 N   0  0  0  0  0  0  0  0  0  0  0  0
    8.9851   -4.1012   -2.5407 C   0  0  0  0  0  0  0  0  0  0  0  0
    8.9684   -3.8649   -1.2096 N   0  0  0  0  0  0  0  0  0  0  0  0
    7.9242   -4.2962   -0.4903 C   0  0  0  0  0  0  0  0  0  0  0  0
    7.9501   -3.9743    0.8557 N   0  0  0  0  0  0  0  0  0  0  0  0
    6.9162   -5.0442   -1.1312 C   0  0  0  0  0  0  0  0  0  0  0  0
    5.7022   -5.7051   -0.7789 C   0  0  0  0  0  0  0  0  0  0  0  0
    5.0882   -5.8680    0.5273 C   0  0  0  0  0  0  0  0  0  0  0  0
    3.7136   -5.7330    0.6863 C   0  0  0  0  0  0  0  0  0  0  0  0
    3.1092   -6.0923    1.8834 C   0  0  0  0  0  0  0  0  0  0  0  0
    3.8658   -6.4280    3.0050 C   0  0  0  0  0  0  0  0  0  0  0  0
    3.2810   -6.7266    4.2550 N   0  0  0  0  0  0  0  0  0  0  0  0
    1.9270   -6.7874    4.4866 C   0  0  0  0  0  0  0  0  0  0  0  0
    1.0419   -6.5797    3.6656 O   0  0  0  0  0  0  0  0  0  0  0  0
    1.6123   -7.1774    5.7669 N   0  0  0  0  0  0  0  0  0  0  0  0
    0.1992   -7.2892    6.1057 C   0  0  0  0  0  0  0  0  0  0  0  0
   -0.3723   -5.9581    6.6106 C   0  0  0  0  0  0  0  0  0  0  0  0
   -1.8585   -6.0899    6.9343 C   0  0  0  0  0  0  0  0  0  0  0  0
   -2.1232   -7.2404    7.9047 C   0  0  0  0  0  0  0  0  0  0  0  0
   -1.5331   -8.5574    7.4009 C   0  0  0  0  0  0  0  0  0  0  0  0
   -0.0434   -8.4236    7.0986 C   0  0  0  0  0  0  0  0  0  0  0  0
    5.2552   -6.4839    2.8790 C   0  0  0  0  0  0  0  0  0  0  0  0
    5.8509   -6.2658    1.6312 C   0  0  0  0  0  0  0  0  0  0  0  0
    3.2383   -6.6515   -3.4838 C   0  0  0  0  0  0  0  0  0  0  0  0
    1.9512   -7.1668   -3.6910 C   0  0  0  0  0  0  0  0  0  0  0  0
   -1.5371   -9.5413   -2.5184 H   0  0  0  0  0  0  0  0  0  0  0  0
   -0.7567   -8.7318   -1.1524 H   0  0  0  0  0  0  0  0  0  0  0  0
    0.0144  -10.1604   -1.9451 H   0  0  0  0  0  0  0  0  0  0  0  0
    1.5880   -8.8803   -0.7743 H   0  0  0  0  0  0  0  0  0  0  0  0
    3.8376   -8.0948   -0.4690 H   0  0  0  0  0  0  0  0  0  0  0  0
    9.8504   -3.7326   -3.0644 H   0  0  0  0  0  0  0  0  0  0  0  0
    8.8809   -3.7141    1.1629 H   0  0  0  0  0  0  0  0  0  0  0  0
    7.3697   -4.4579    1.5043 H   0  0  0  0  0  0  0  0  0  0  0  0
    3.0615   -5.4597   -0.1419 H   0  0  0  0  0  0  0  0  0  0  0  0
    2.0262   -6.1134    1.8726 H   0  0  0  0  0  0  0  0  0  0  0  0
    3.9007   -6.9334    5.0221 H   0  0  0  0  0  0  0  0  0  0  0  0
    2.2688   -6.9734    6.5040 H   0  0  0  0  0  0  0  0  0  0  0  0
   -0.3473   -7.5540    5.1914 H   0  0  0  0  0  0  0  0  0  0  0  0
   -0.2342   -5.1717    5.8571 H   0  0  0  0  0  0  0  0  0  0  0  0
    0.1734   -5.6308    7.5056 H   0  0  0  0  0  0  0  0  0  0  0  0
   -2.4193   -6.2625    6.0070 H   0  0  0  0  0  0  0  0  0  0  0  0
   -2.2324   -5.1528    7.3616 H   0  0  0  0  0  0  0  0  0  0  0  0
   -3.2026   -7.3543    8.0551 H   0  0  0  0  0  0  0  0  0  0  0  0
   -1.6875   -6.9990    8.8820 H   0  0  0  0  0  0  0  0  0  0  0  0
   -2.0648   -8.8620    6.4886 H   0  0  0  0  0  0  0  0  0  0  0  0
   -1.6922   -9.3454    8.1412 H   0  0  0  0  0  0  0  0  0  0  0  0
    0.3275   -9.3664    6.6768 H   0  0  0  0  0  0  0  0  0  0  0  0
    0.5165   -8.2466    8.0230 H   0  0  0  0  0  0  0  0  0  0  0  0
    5.8924   -6.7419    3.7190 H   0  0  0  0  0  0  0  0  0  0  0  0
    6.9198   -6.4346    1.5302 H   0  0  0  0  0  0  0  0  0  0  0  0
    3.6668   -5.9860   -4.2300 H   0  0  0  0  0  0  0  0  0  0  0  0
    1.4122   -6.9125   -4.6006 H   0  0  0  0  0  0  0  0  0  0  0  0
  1  2  1  0  0  0  0
  1 35  1  0  0  0  0
  1 36  1  0  0  0  0
  1 37  1  0  0  0  0
  2  3  1  0  0  0  0
  3  4  1  0  0  0  0
  3 34  2  0  0  0  0
  4  5  2  0  0  0  0
  4 38  1  0  0  0  0
  5  6  1  0  0  0  0
  5 39  1  0  0  0  0
  6  7  1  0  0  0  0
  6 33  2  0  0  0  0
  7  8  1  0  0  0  0
  7 16  2  0  0  0  0
  8  9  1  0  0  0  0
  9 10  1  0  0  0  0
  9 15  2  0  0  0  0
 10 11  2  0  0  0  0
 11 12  1  0  0  0  0
 11 40  1  0  0  0  0
 12 13  2  0  0  0  0
 13 14  1  0  0  0  0
 13 15  1  0  0  0  0
 14 41  1  0  0  0  0
 14 42  1  0  0  0  0
 15 16  1  0  0  0  0
 16 17  1  0  0  0  0
 17 18  1  0  0  0  0
 17 32  2  0  0  0  0
 18 19  2  0  0  0  0
 18 43  1  0  0  0  0
 19 20  1  0  0  0  0
 19 44  1  0  0  0  0
 20 21  1  0  0  0  0
 20 31  2  0  0  0  0
 21 22  1  0  0  0  0
 21 45  1  0  0  0  0
 22 23  2  0  0  0  0
 22 24  1  0  0  0  0
 24 25  1  0  0  0  0
 24 46  1  0  0  0  0
 25 26  1  0  0  0  0
 25 30  1  0  0  0  0
 25 47  1  0  0  0  0
 26 27  1  0  0  0  0
 26 48  1  0  0  0  0
 26 49  1  0  0  0  0
 27 28  1  0  0  0  0
 27 50  1  0  0  0  0
 27 51  1  0  0  0  0
 28 29  1  0  0  0  0
 28 52  1  0  0  0  0
 28 53  1  0  0  0  0
 29 30  1  0  0  0  0
 29 54  1  0  0  0  0
 29 55  1  0  0  0  0
 30 56  1  0  0  0  0
 30 57  1  0  0  0  0
 31 32  1  0  0  0  0
 31 58  1  0  0  0  0
 32 59  1  0  0  0  0
 33 34  1  0  0  0  0
 33 60  1  0  0  0  0
 34 61  1  0  0  0  0
M  END
$$$$
