CHEMBL246546
 OpenBabel04072215363D

 39 42  0  0  0  0  0  0  0  0999 V2000
    2.8567   -0.6387   -0.5460 O   0  0  0  0  0  0  0  0  0  0  0  0
    4.2699   -0.8143   -0.6358 C   0  0  0  0  0  0  0  0  0  0  0  0
    4.7148   -0.6737   -2.0966 C   0  0  0  0  0  0  0  0  0  0  0  0
    4.2880    0.5849   -2.7355 N   0  0  0  0  0  0  0  0  0  0  0  0
    4.8619    1.7865   -2.1206 C   0  0  0  0  0  0  0  0  0  0  0  0
    6.3687    1.8189   -2.1519 C   0  0  0  0  0  0  0  0  0  0  0  0
    7.1220    1.7879   -0.9616 C   0  0  0  0  0  0  0  0  0  0  0  0
    8.5315    1.7623   -0.9771 C   0  0  0  0  0  0  0  0  0  0  0  0
    9.2355    1.7696   -2.1799 C   0  0  0  0  0  0  0  0  0  0  0  0
    8.4953    1.8091   -3.3411 C   0  0  0  0  0  0  0  0  0  0  0  0
    7.0752    1.8367   -3.3508 C   0  0  0  0  0  0  0  0  0  0  0  0
    6.4786    1.8604   -4.7678 C   0  0  0  0  0  0  0  0  0  0  0  0
    7.7594    1.8423   -5.5236 C   0  0  0  0  0  0  0  0  0  0  0  0
    8.8956    1.8088   -4.7044 C   0  0  0  0  0  0  0  0  0  0  0  0
   10.0407    1.7638   -5.3706 N   0  0  0  0  0  0  0  0  0  0  0  0
    9.6103    1.7670   -6.6608 N   0  0  0  0  0  0  0  0  0  0  0  0
    8.2380    1.8198   -6.8060 C   0  0  0  0  0  0  0  0  0  0  0  0
    7.4737    1.8384   -8.0816 C   0  0  0  0  0  0  0  0  0  0  0  0
    6.0556    1.9605   -8.1934 C   0  0  0  0  0  0  0  0  0  0  0  0
    5.6292    1.9524   -9.5039 C   0  0  0  0  0  0  0  0  0  0  0  0
    6.9304    1.7892  -10.5993 S   0  0  0  0  0  0  0  0  0  0  0  0
    8.0707    1.7381   -9.3204 C   0  0  0  0  0  0  0  0  0  0  0  0
    2.6211   -0.7340    0.3927 H   0  0  0  0  0  0  0  0  0  0  0  0
    4.5253   -1.8091   -0.2594 H   0  0  0  0  0  0  0  0  0  0  0  0
    4.7521   -0.0706    0.0054 H   0  0  0  0  0  0  0  0  0  0  0  0
    4.2524   -1.4836   -2.6738 H   0  0  0  0  0  0  0  0  0  0  0  0
    5.7968   -0.8197   -2.1833 H   0  0  0  0  0  0  0  0  0  0  0  0
    3.2723    0.6320   -2.6166 H   0  0  0  0  0  0  0  0  0  0  0  0
    4.4900    1.9130   -1.0973 H   0  0  0  0  0  0  0  0  0  0  0  0
    4.4941    2.6618   -2.6705 H   0  0  0  0  0  0  0  0  0  0  0  0
    6.6144    1.7687    0.0009 H   0  0  0  0  0  0  0  0  0  0  0  0
    9.0774    1.7261   -0.0358 H   0  0  0  0  0  0  0  0  0  0  0  0
   10.3194    1.7406   -2.2087 H   0  0  0  0  0  0  0  0  0  0  0  0
    5.9132    2.7800   -4.9379 H   0  0  0  0  0  0  0  0  0  0  0  0
    5.8872    0.9647   -4.9691 H   0  0  0  0  0  0  0  0  0  0  0  0
   10.3081    1.7340   -7.3939 H   0  0  0  0  0  0  0  0  0  0  0  0
    5.3677    2.0572   -7.3637 H   0  0  0  0  0  0  0  0  0  0  0  0
    4.6144    2.0338   -9.8690 H   0  0  0  0  0  0  0  0  0  0  0  0
    9.1174    1.6285   -9.5625 H   0  0  0  0  0  0  0  0  0  0  0  0
  1  2  1  0  0  0  0
  1 23  1  0  0  0  0
  2  3  1  0  0  0  0
  2 24  1  0  0  0  0
  2 25  1  0  0  0  0
  3  4  1  0  0  0  0
  3 26  1  0  0  0  0
  3 27  1  0  0  0  0
  4  5  1  0  0  0  0
  4 28  1  0  0  0  0
  5  6  1  0  0  0  0
  5 29  1  0  0  0  0
  5 30  1  0  0  0  0
  6  7  1  0  0  0  0
  6 11  2  0  0  0  0
  7  8  2  0  0  0  0
  7 31  1  0  0  0  0
  8  9  1  0  0  0  0
  8 32  1  0  0  0  0
  9 10  2  0  0  0  0
  9 33  1  0  0  0  0
 10 11  1  0  0  0  0
 10 14  1  0  0  0  0
 11 12  1  0  0  0  0
 12 13  1  0  0  0  0
 12 34  1  0  0  0  0
 12 35  1  0  0  0  0
 13 14  1  0  0  0  0
 13 17  2  0  0  0  0
 14 15  2  0  0  0  0
 15 16  1  0  0  0  0
 16 17  1  0  0  0  0
 16 36  1  0  0  0  0
 17 18  1  0  0  0  0
 18 19  1  0  0  0  0
 18 22  2  0  0  0  0
 19 20  2  0  0  0  0
 19 37  1  0  0  0  0
 20 21  1  0  0  0  0
 20 38  1  0  0  0  0
 21 22  1  0  0  0  0
 22 39  1  0  0  0  0
M  END
$$$$
