CHEMBL403070
 OpenBabel04072215373D

 48 51  0  0  0  0  0  0  0  0999 V2000
    1.3250   -0.2550   -1.9763 N   0  0  0  0  0  0  0  0  0  0  0  0
    2.6283   -0.2992   -1.6577 C   0  0  0  0  0  0  0  0  0  0  0  0
    3.4541    0.6749   -2.0366 N   0  0  0  0  0  0  0  0  0  0  0  0
    4.6303    0.3162   -1.5007 N   0  0  0  0  0  0  0  0  0  0  0  0
    4.5901   -0.8506   -0.7988 C   0  0  0  0  0  0  0  0  0  0  0  0
    5.6334   -1.3931   -0.1475 N   0  0  0  0  0  0  0  0  0  0  0  0
    5.3182   -2.5460    0.4689 C   0  0  0  0  0  0  0  0  0  0  0  0
    4.0715   -3.1511    0.4400 C   0  0  0  0  0  0  0  0  0  0  0  0
    2.9923   -2.5519   -0.2522 C   0  0  0  0  0  0  0  0  0  0  0  0
    1.6484   -3.1583   -0.2267 C   0  0  0  0  0  0  0  0  0  0  0  0
    1.1939   -3.7713    0.9463 C   0  0  0  0  0  0  0  0  0  0  0  0
   -0.0765   -4.3373    1.0338 C   0  0  0  0  0  0  0  0  0  0  0  0
   -0.9661   -4.2885   -0.0372 C   0  0  0  0  0  0  0  0  0  0  0  0
   -2.2769   -4.8104    0.0375 N   0  0  0  0  0  0  0  0  0  0  0  0
   -2.8098   -5.4548    1.1339 C   0  0  0  0  0  0  0  0  0  0  0  0
   -2.2226   -5.7369    2.1670 O   0  0  0  0  0  0  0  0  0  0  0  0
   -4.1559   -5.7142    1.0000 N   0  0  0  0  0  0  0  0  0  0  0  0
   -4.8541   -6.3555    2.1125 C   0  0  0  0  0  0  0  0  0  0  0  0
   -4.7255   -7.8839    2.0322 C   0  0  0  0  0  0  0  0  0  0  0  0
   -5.5773   -8.5931    3.0808 C   0  0  0  0  0  0  0  0  0  0  0  0
   -7.0258   -8.1205    3.0290 C   0  0  0  0  0  0  0  0  0  0  0  0
   -7.1128   -6.6119    3.2288 C   0  0  0  0  0  0  0  0  0  0  0  0
   -6.3012   -5.8675    2.1743 C   0  0  0  0  0  0  0  0  0  0  0  0
   -0.5368   -3.6840   -1.2197 C   0  0  0  0  0  0  0  0  0  0  0  0
    0.7696   -3.1702   -1.3216 C   0  0  0  0  0  0  0  0  0  0  0  0
    3.2835   -1.3223   -0.8969 C   0  0  0  0  0  0  0  0  0  0  0  0
    1.0035    0.6178   -2.3796 H   0  0  0  0  0  0  0  0  0  0  0  0
    0.6470   -0.6695   -1.3468 H   0  0  0  0  0  0  0  0  0  0  0  0
    5.4370    0.9118   -1.6297 H   0  0  0  0  0  0  0  0  0  0  0  0
    6.1326   -3.0037    1.0285 H   0  0  0  0  0  0  0  0  0  0  0  0
    3.9428   -4.0909    0.9710 H   0  0  0  0  0  0  0  0  0  0  0  0
    1.8162   -3.8178    1.8372 H   0  0  0  0  0  0  0  0  0  0  0  0
   -0.3284   -4.7928    1.9828 H   0  0  0  0  0  0  0  0  0  0  0  0
   -2.8747   -4.6834   -0.7655 H   0  0  0  0  0  0  0  0  0  0  0  0
   -4.5123   -5.8698    0.0692 H   0  0  0  0  0  0  0  0  0  0  0  0
   -4.3733   -6.0360    3.0474 H   0  0  0  0  0  0  0  0  0  0  0  0
   -3.6765   -8.1786    2.1655 H   0  0  0  0  0  0  0  0  0  0  0  0
   -5.0164   -8.2319    1.0333 H   0  0  0  0  0  0  0  0  0  0  0  0
   -5.1653   -8.4037    4.0802 H   0  0  0  0  0  0  0  0  0  0  0  0
   -5.5341   -9.6766    2.9203 H   0  0  0  0  0  0  0  0  0  0  0  0
   -7.6103   -8.6319    3.8012 H   0  0  0  0  0  0  0  0  0  0  0  0
   -7.4645   -8.3882    2.0599 H   0  0  0  0  0  0  0  0  0  0  0  0
   -6.7394   -6.3553    4.2278 H   0  0  0  0  0  0  0  0  0  0  0  0
   -8.1593   -6.2889    3.1862 H   0  0  0  0  0  0  0  0  0  0  0  0
   -6.3102   -4.7944    2.4050 H   0  0  0  0  0  0  0  0  0  0  0  0
   -6.7808   -5.9798    1.1949 H   0  0  0  0  0  0  0  0  0  0  0  0
   -1.1952   -3.6001   -2.0809 H   0  0  0  0  0  0  0  0  0  0  0  0
    1.0847   -2.7593   -2.2794 H   0  0  0  0  0  0  0  0  0  0  0  0
  1  2  1  0  0  0  0
  1 27  1  0  0  0  0
  1 28  1  0  0  0  0
  2  3  2  0  0  0  0
  2 26  1  0  0  0  0
  3  4  1  0  0  0  0
  4  5  1  0  0  0  0
  4 29  1  0  0  0  0
  5  6  1  0  0  0  0
  5 26  2  0  0  0  0
  6  7  2  0  0  0  0
  7  8  1  0  0  0  0
  7 30  1  0  0  0  0
  8  9  2  0  0  0  0
  8 31  1  0  0  0  0
  9 10  1  0  0  0  0
  9 26  1  0  0  0  0
 10 11  1  0  0  0  0
 10 25  2  0  0  0  0
 11 12  2  0  0  0  0
 11 32  1  0  0  0  0
 12 13  1  0  0  0  0
 12 33  1  0  0  0  0
 13 14  1  0  0  0  0
 13 24  2  0  0  0  0
 14 15  1  0  0  0  0
 14 34  1  0  0  0  0
 15 16  2  0  0  0  0
 15 17  1  0  0  0  0
 17 18  1  0  0  0  0
 17 35  1  0  0  0  0
 18 19  1  0  0  0  0
 18 23  1  0  0  0  0
 18 36  1  0  0  0  0
 19 20  1  0  0  0  0
 19 37  1  0  0  0  0
 19 38  1  0  0  0  0
 20 21  1  0  0  0  0
 20 39  1  0  0  0  0
 20 40  1  0  0  0  0
 21 22  1  0  0  0  0
 21 41  1  0  0  0  0
 21 42  1  0  0  0  0
 22 23  1  0  0  0  0
 22 43  1  0  0  0  0
 22 44  1  0  0  0  0
 23 45  1  0  0  0  0
 23 46  1  0  0  0  0
 24 25  1  0  0  0  0
 24 47  1  0  0  0  0
 25 48  1  0  0  0  0
M  END
$$$$
