CHEMBL1085511
 OpenBabel04072215363D

 70 74  0  0  0  0  0  0  0  0999 V2000
    5.5083    0.9304   -3.3707 C   0  0  0  0  0  0  0  0  0  0  0  0
    6.8885    1.0232   -2.7206 C   0  0  0  0  0  0  0  0  0  0  0  0
    7.4269    2.4517   -2.8481 C   0  0  0  0  0  0  0  0  0  0  0  0
    6.8445    0.6257   -1.2390 C   0  0  0  0  0  0  0  0  0  0  0  0
    6.4378   -0.7410   -1.0318 O   0  0  0  0  0  0  0  0  0  0  0  0
    7.4451   -1.5778   -0.6493 C   0  0  0  0  0  0  0  0  0  0  0  0
    8.6291   -1.3010   -0.7696 O   0  0  0  0  0  0  0  0  0  0  0  0
    6.9153   -2.7188   -0.1002 N   0  0  0  0  0  0  0  0  0  0  0  0
    7.6309   -3.7214    0.5903 C   0  0  0  0  0  0  0  0  0  0  0  0
    8.9620   -3.5609    0.9864 C   0  0  0  0  0  0  0  0  0  0  0  0
    9.6507   -4.5895    1.6335 C   0  0  0  0  0  0  0  0  0  0  0  0
    9.0171   -5.8033    1.8946 C   0  0  0  0  0  0  0  0  0  0  0  0
    9.7816   -6.9120    2.4739 C   0  0  0  0  0  0  0  0  0  0  0  0
   10.3928   -7.9316    1.5671 C   0  0  0  0  0  0  0  0  0  0  0  0
   11.1059   -8.9580    1.9156 N   0  0  0  0  0  0  0  0  0  0  0  0
   11.3230   -9.1142    3.2607 C   0  0  0  0  0  0  0  0  0  0  0  0
   12.0289  -10.0590    3.9876 C   0  0  0  0  0  0  0  0  0  0  0  0
   12.7872  -11.1778    3.4419 C   0  0  0  0  0  0  0  0  0  0  0  0
   13.3637  -11.1137    2.1739 C   0  0  0  0  0  0  0  0  0  0  0  0
   14.1187  -12.1803    1.6767 C   0  0  0  0  0  0  0  0  0  0  0  0
   14.3360  -13.3514    2.4156 C   0  0  0  0  0  0  0  0  0  0  0  0
   15.1321  -14.3525    1.8922 N   0  0  0  0  0  0  0  0  0  0  0  0
   15.7977  -15.3581    2.7321 C   0  0  0  0  0  0  0  0  0  0  0  0
   17.1141  -15.8004    2.0396 C   0  0  0  0  0  0  0  0  0  0  0  0
   16.8959  -16.3067    0.6627 N   0  0  0  0  0  0  0  0  0  0  0  0
   18.1631  -16.6676    0.0343 C   0  0  0  0  0  0  0  0  0  0  0  0
   16.2040  -15.2636   -0.1301 C   0  0  0  0  0  0  0  0  0  0  0  0
   14.8728  -14.8248    0.5184 C   0  0  0  0  0  0  0  0  0  0  0  0
   13.7691  -13.4006    3.6930 C   0  0  0  0  0  0  0  0  0  0  0  0
   13.0014  -12.3363    4.1989 C   0  0  0  0  0  0  0  0  0  0  0  0
   11.8369   -9.6740    5.3320 C   0  0  0  0  0  0  0  0  0  0  0  0
   11.0899   -8.5796    5.4727 N   0  0  0  0  0  0  0  0  0  0  0  0
   10.7987   -8.2080    4.1913 N   0  0  0  0  0  0  0  0  0  0  0  0
   10.0352   -7.0737    3.7908 C   0  0  0  0  0  0  0  0  0  0  0  0
    9.6040   -6.2104    4.8026 N   0  0  0  0  0  0  0  0  0  0  0  0
    7.6694   -5.9573    1.5496 C   0  0  0  0  0  0  0  0  0  0  0  0
    6.9772   -4.9172    0.9104 C   0  0  0  0  0  0  0  0  0  0  0  0
    5.5515    1.2491   -4.4183 H   0  0  0  0  0  0  0  0  0  0  0  0
    4.7855    1.5733   -2.8565 H   0  0  0  0  0  0  0  0  0  0  0  0
    5.1292   -0.0956   -3.3494 H   0  0  0  0  0  0  0  0  0  0  0  0
    7.5597    0.3423   -3.2585 H   0  0  0  0  0  0  0  0  0  0  0  0
    6.7884    3.1636   -2.3123 H   0  0  0  0  0  0  0  0  0  0  0  0
    7.4754    2.7655   -3.8960 H   0  0  0  0  0  0  0  0  0  0  0  0
    8.4366    2.5270   -2.4299 H   0  0  0  0  0  0  0  0  0  0  0  0
    6.1182    1.2486   -0.7054 H   0  0  0  0  0  0  0  0  0  0  0  0
    7.8144    0.8310   -0.7681 H   0  0  0  0  0  0  0  0  0  0  0  0
    5.9184   -2.8267   -0.2185 H   0  0  0  0  0  0  0  0  0  0  0  0
    9.5012   -2.6342    0.8157 H   0  0  0  0  0  0  0  0  0  0  0  0
   10.6901   -4.4308    1.9158 H   0  0  0  0  0  0  0  0  0  0  0  0
   10.2131   -7.7688    0.4899 H   0  0  0  0  0  0  0  0  0  0  0  0
   13.2620  -10.2275    1.5529 H   0  0  0  0  0  0  0  0  0  0  0  0
   14.5841  -12.0569    0.7025 H   0  0  0  0  0  0  0  0  0  0  0  0
   15.1401  -16.2238    2.8828 H   0  0  0  0  0  0  0  0  0  0  0  0
   16.0577  -14.9515    3.7163 H   0  0  0  0  0  0  0  0  0  0  0  0
   17.5850  -16.5795    2.6500 H   0  0  0  0  0  0  0  0  0  0  0  0
   17.7995  -14.9410    2.0176 H   0  0  0  0  0  0  0  0  0  0  0  0
   18.6585  -17.4617    0.6029 H   0  0  0  0  0  0  0  0  0  0  0  0
   18.8495  -15.8168   -0.0435 H   0  0  0  0  0  0  0  0  0  0  0  0
   17.9890  -17.0626   -0.9727 H   0  0  0  0  0  0  0  0  0  0  0  0
   15.9912  -15.6430   -1.1362 H   0  0  0  0  0  0  0  0  0  0  0  0
   16.8488  -14.3801   -0.2402 H   0  0  0  0  0  0  0  0  0  0  0  0
   14.1740  -15.6712    0.5491 H   0  0  0  0  0  0  0  0  0  0  0  0
   14.4146  -14.0622   -0.1194 H   0  0  0  0  0  0  0  0  0  0  0  0
   13.8974  -14.2781    4.3199 H   0  0  0  0  0  0  0  0  0  0  0  0
   12.5748  -12.4384    5.1931 H   0  0  0  0  0  0  0  0  0  0  0  0
   12.2241  -10.1510    6.2230 H   0  0  0  0  0  0  0  0  0  0  0  0
    9.6024   -6.6738    5.7144 H   0  0  0  0  0  0  0  0  0  0  0  0
    8.7608   -5.6914    4.5869 H   0  0  0  0  0  0  0  0  0  0  0  0
    7.1528   -6.8923    1.7589 H   0  0  0  0  0  0  0  0  0  0  0  0
    5.9350   -5.0732    0.6427 H   0  0  0  0  0  0  0  0  0  0  0  0
  1  2  1  0  0  0  0
  1 38  1  0  0  0  0
  1 39  1  0  0  0  0
  1 40  1  0  0  0  0
  2  3  1  0  0  0  0
  2  4  1  0  0  0  0
  2 41  1  0  0  0  0
  3 42  1  0  0  0  0
  3 43  1  0  0  0  0
  3 44  1  0  0  0  0
  4  5  1  0  0  0  0
  4 45  1  0  0  0  0
  4 46  1  0  0  0  0
  5  6  1  0  0  0  0
  6  7  2  0  0  0  0
  6  8  1  0  0  0  0
  8  9  1  0  0  0  0
  8 47  1  0  0  0  0
  9 10  1  0  0  0  0
  9 37  2  0  0  0  0
 10 11  2  0  0  0  0
 10 48  1  0  0  0  0
 11 12  1  0  0  0  0
 11 49  1  0  0  0  0
 12 13  1  0  0  0  0
 12 36  2  0  0  0  0
 13 14  1  0  0  0  0
 13 34  2  0  0  0  0
 14 15  2  0  0  0  0
 14 50  1  0  0  0  0
 15 16  1  0  0  0  0
 16 17  2  0  0  0  0
 16 33  1  0  0  0  0
 17 18  1  0  0  0  0
 17 31  1  0  0  0  0
 18 19  1  0  0  0  0
 18 30  2  0  0  0  0
 19 20  2  0  0  0  0
 19 51  1  0  0  0  0
 20 21  1  0  0  0  0
 20 52  1  0  0  0  0
 21 22  1  0  0  0  0
 21 29  2  0  0  0  0
 22 23  1  0  0  0  0
 22 28  1  0  0  0  0
 23 24  1  0  0  0  0
 23 53  1  0  0  0  0
 23 54  1  0  0  0  0
 24 25  1  0  0  0  0
 24 55  1  0  0  0  0
 24 56  1  0  0  0  0
 25 26  1  0  0  0  0
 25 27  1  0  0  0  0
 26 57  1  0  0  0  0
 26 58  1  0  0  0  0
 26 59  1  0  0  0  0
 27 28  1  0  0  0  0
 27 60  1  0  0  0  0
 27 61  1  0  0  0  0
 28 62  1  0  0  0  0
 28 63  1  0  0  0  0
 29 30  1  0  0  0  0
 29 64  1  0  0  0  0
 30 65  1  0  0  0  0
 31 32  2  0  0  0  0
 31 66  1  0  0  0  0
 32 33  1  0  0  0  0
 33 34  1  0  0  0  0
 34 35  1  0  0  0  0
 35 67  1  0  0  0  0
 35 68  1  0  0  0  0
 36 37  1  0  0  0  0
 36 69  1  0  0  0  0
 37 70  1  0  0  0  0
M  END
$$$$
