CHEMBL3935124
 OpenBabel04072215373D

 69 73  0  0  0  0  0  0  0  0999 V2000
    0.6235   -0.4576   -0.7061 C   0  0  0  0  0  0  0  0  0  0  0  0
    1.9678   -0.6511   -0.2296 O   0  0  0  0  0  0  0  0  0  0  0  0
    2.8752   -1.1310   -1.1437 C   0  0  0  0  0  0  0  0  0  0  0  0
    2.6995   -1.0768   -2.5145 C   0  0  0  0  0  0  0  0  0  0  0  0
    3.6519   -1.6099   -3.3658 C   0  0  0  0  0  0  0  0  0  0  0  0
    3.5828   -1.5629   -4.7378 O   0  0  0  0  0  0  0  0  0  0  0  0
    2.5142   -0.7753   -5.2903 C   0  0  0  0  0  0  0  0  0  0  0  0
    2.7195   -0.6583   -6.7954 C   0  0  0  0  0  0  0  0  0  0  0  0
    2.7333   -1.9502   -7.3942 O   0  0  0  0  0  0  0  0  0  0  0  0
    4.7878   -2.2528   -2.8324 C   0  0  0  0  0  0  0  0  0  0  0  0
    5.0516   -2.2934   -1.4530 C   0  0  0  0  0  0  0  0  0  0  0  0
    6.1914   -2.9747   -0.9321 N   0  0  0  0  0  0  0  0  0  0  0  0
    6.6534   -2.5874    0.4571 C   0  0  0  0  0  0  0  0  0  0  0  0
    6.0038   -3.1506    1.7192 C   0  0  0  0  0  0  0  0  0  0  0  0
    6.0430   -4.6070    2.1515 C   0  0  0  0  0  0  0  0  0  0  0  0
    4.7284   -3.9538    1.8407 C   0  0  0  0  0  0  0  0  0  0  0  0
    7.2620   -3.6926   -1.6010 C   0  0  0  0  0  0  0  0  0  0  0  0
    7.5935   -4.8959   -1.0009 C   0  0  0  0  0  0  0  0  0  0  0  0
    8.8707   -5.4043   -1.1017 C   0  0  0  0  0  0  0  0  0  0  0  0
    9.7910   -4.8725   -1.9657 C   0  0  0  0  0  0  0  0  0  0  0  0
   11.0242   -5.3594   -1.8046 N   0  0  0  0  0  0  0  0  0  0  0  0
   11.9035   -5.1074   -2.7785 C   0  0  0  0  0  0  0  0  0  0  0  0
   11.5430   -4.4829   -3.9537 C   0  0  0  0  0  0  0  0  0  0  0  0
   12.3682   -4.8729   -5.1171 C   0  0  0  0  0  0  0  0  0  0  0  0
   13.3372   -4.2029   -5.9021 C   0  0  0  0  0  0  0  0  0  0  0  0
   14.0178   -5.0206   -6.7277 N   0  0  0  0  0  0  0  0  0  0  0  0
   13.4851   -6.2375   -6.5006 N   0  0  0  0  0  0  0  0  0  0  0  0
   13.6803   -7.3260   -7.4557 C   0  0  0  0  0  0  0  0  0  0  0  0
   15.0426   -8.0235   -7.4758 C   0  0  0  0  0  0  0  0  0  0  0  0
   15.0509   -9.2483   -8.7986 S   0  0  0  0  0  0  0  0  0  0  0  0
   16.6456  -10.0423   -8.7098 C   0  0  0  0  0  0  0  0  0  0  0  0
   14.0575  -10.2540   -8.4753 O   0  0  0  0  0  0  0  0  0  0  0  0
   14.9985   -8.5420  -10.0628 O   0  0  0  0  0  0  0  0  0  0  0  0
   12.5878   -6.2093   -5.4602 C   0  0  0  0  0  0  0  0  0  0  0  0
   10.3316   -3.8108   -4.0342 N   0  0  0  0  0  0  0  0  0  0  0  0
    9.4151   -3.9437   -2.9574 C   0  0  0  0  0  0  0  0  0  0  0  0
    8.1302   -3.2750   -2.6560 C   0  0  0  0  0  0  0  0  0  0  0  0
    4.0613   -1.6935   -0.6288 C   0  0  0  0  0  0  0  0  0  0  0  0
   -0.0113   -0.1800    0.1421 H   0  0  0  0  0  0  0  0  0  0  0  0
    0.2181   -1.3823   -1.1338 H   0  0  0  0  0  0  0  0  0  0  0  0
    0.5637    0.3630   -1.4306 H   0  0  0  0  0  0  0  0  0  0  0  0
    1.8002   -0.6103   -2.9185 H   0  0  0  0  0  0  0  0  0  0  0  0
    2.5123    0.2357   -4.8641 H   0  0  0  0  0  0  0  0  0  0  0  0
    1.5606   -1.2797   -5.0938 H   0  0  0  0  0  0  0  0  0  0  0  0
    3.6712   -0.1689   -7.0227 H   0  0  0  0  0  0  0  0  0  0  0  0
    1.9077   -0.0793   -7.2463 H   0  0  0  0  0  0  0  0  0  0  0  0
    3.3762   -2.4746   -6.8790 H   0  0  0  0  0  0  0  0  0  0  0  0
    5.4748   -2.7204   -3.5286 H   0  0  0  0  0  0  0  0  0  0  0  0
    6.6104   -1.4921    0.5343 H   0  0  0  0  0  0  0  0  0  0  0  0
    7.7256   -2.8011    0.5776 H   0  0  0  0  0  0  0  0  0  0  0  0
    6.2206   -2.4630    2.5382 H   0  0  0  0  0  0  0  0  0  0  0  0
    6.2597   -4.8312    3.1934 H   0  0  0  0  0  0  0  0  0  0  0  0
    6.3497   -5.4096    1.5035 H   0  0  0  0  0  0  0  0  0  0  0  0
    4.0791   -3.7540    2.6897 H   0  0  0  0  0  0  0  0  0  0  0  0
    4.2028   -4.2661    0.9486 H   0  0  0  0  0  0  0  0  0  0  0  0
    6.8895   -5.3789   -0.3425 H   0  0  0  0  0  0  0  0  0  0  0  0
    9.1604   -6.2407   -0.4708 H   0  0  0  0  0  0  0  0  0  0  0  0
   12.8889   -5.5354   -2.6330 H   0  0  0  0  0  0  0  0  0  0  0  0
   13.6095   -3.1553   -5.8879 H   0  0  0  0  0  0  0  0  0  0  0  0
   13.4641   -6.8964   -8.4410 H   0  0  0  0  0  0  0  0  0  0  0  0
   12.8933   -8.0634   -7.2563 H   0  0  0  0  0  0  0  0  0  0  0  0
   15.2377   -8.5594   -6.5420 H   0  0  0  0  0  0  0  0  0  0  0  0
   15.8615   -7.3278   -7.6766 H   0  0  0  0  0  0  0  0  0  0  0  0
   16.7142  -10.6109   -7.7815 H   0  0  0  0  0  0  0  0  0  0  0  0
   17.4299   -9.2875   -8.7700 H   0  0  0  0  0  0  0  0  0  0  0  0
   16.7317  -10.7254   -9.5614 H   0  0  0  0  0  0  0  0  0  0  0  0
   12.1622   -7.1261   -5.0728 H   0  0  0  0  0  0  0  0  0  0  0  0
    7.8766   -2.4030   -3.2564 H   0  0  0  0  0  0  0  0  0  0  0  0
    4.1589   -1.6857    0.4525 H   0  0  0  0  0  0  0  0  0  0  0  0
  1  2  1  0  0  0  0
  1 39  1  0  0  0  0
  1 40  1  0  0  0  0
  1 41  1  0  0  0  0
  2  3  1  0  0  0  0
  3  4  1  0  0  0  0
  3 38  2  0  0  0  0
  4  5  2  0  0  0  0
  4 42  1  0  0  0  0
  5  6  1  0  0  0  0
  5 10  1  0  0  0  0
  6  7  1  0  0  0  0
  7  8  1  0  0  0  0
  7 43  1  0  0  0  0
  7 44  1  0  0  0  0
  8  9  1  0  0  0  0
  8 45  1  0  0  0  0
  8 46  1  0  0  0  0
  9 47  1  0  0  0  0
 10 11  2  0  0  0  0
 10 48  1  0  0  0  0
 11 12  1  0  0  0  0
 11 38  1  0  0  0  0
 12 13  1  0  0  0  0
 12 17  1  0  0  0  0
 13 14  1  0  0  0  0
 13 49  1  0  0  0  0
 13 50  1  0  0  0  0
 14 15  1  0  0  0  0
 14 16  1  0  0  0  0
 14 51  1  0  0  0  0
 15 16  1  0  0  0  0
 15 52  1  0  0  0  0
 15 53  1  0  0  0  0
 16 54  1  0  0  0  0
 16 55  1  0  0  0  0
 17 18  1  0  0  0  0
 17 37  2  0  0  0  0
 18 19  2  0  0  0  0
 18 56  1  0  0  0  0
 19 20  1  0  0  0  0
 19 57  1  0  0  0  0
 20 21  1  0  0  0  0
 20 36  2  0  0  0  0
 21 22  2  0  0  0  0
 22 23  1  0  0  0  0
 22 58  1  0  0  0  0
 23 24  1  0  0  0  0
 23 35  2  0  0  0  0
 24 25  1  0  0  0  0
 24 34  2  0  0  0  0
 25 26  2  0  0  0  0
 25 59  1  0  0  0  0
 26 27  1  0  0  0  0
 27 28  1  0  0  0  0
 27 34  1  0  0  0  0
 28 29  1  0  0  0  0
 28 60  1  0  0  0  0
 28 61  1  0  0  0  0
 29 30  1  0  0  0  0
 29 62  1  0  0  0  0
 29 63  1  0  0  0  0
 30 31  1  0  0  0  0
 30 32  2  0  0  0  0
 30 33  2  0  0  0  0
 31 64  1  0  0  0  0
 31 65  1  0  0  0  0
 31 66  1  0  0  0  0
 34 67  1  0  0  0  0
 35 36  1  0  0  0  0
 36 37  1  0  0  0  0
 37 68  1  0  0  0  0
 38 69  1  0  0  0  0
M  END
$$$$
