CHEMBL3321912
 OpenBabel04072215363D

 41 45  0  0  0  0  0  0  0  0999 V2000
    3.6994   -0.0904   -1.1020 F   0  0  0  0  0  0  0  0  0  0  0  0
    2.4722   -0.0865   -0.5667 C   0  0  0  0  0  0  0  0  0  0  0  0
    1.9510   -1.2621   -0.0484 C   0  0  0  0  0  0  0  0  0  0  0  0
    0.6713   -1.2579    0.5014 C   0  0  0  0  0  0  0  0  0  0  0  0
   -0.0821   -0.0744    0.5352 C   0  0  0  0  0  0  0  0  0  0  0  0
   -1.8369   -0.2347    1.2582 Br  0  0  0  0  0  0  0  0  0  0  0  0
    0.4462    1.1257    0.0195 C   0  0  0  0  0  0  0  0  0  0  0  0
   -0.2609    2.4106   -0.0124 C   0  0  0  0  0  0  0  0  0  0  0  0
   -0.0835    3.3565   -0.9169 N   0  0  0  0  0  0  0  0  0  0  0  0
   -0.9711    4.3528   -0.6045 C   0  0  0  0  0  0  0  0  0  0  0  0
   -1.2419    5.5450   -1.2764 C   0  0  0  0  0  0  0  0  0  0  0  0
   -2.2298    6.3862   -0.7513 C   0  0  0  0  0  0  0  0  0  0  0  0
   -2.9179    6.0915    0.4423 C   0  0  0  0  0  0  0  0  0  0  0  0
   -3.9429    6.9516    0.9128 N   0  0  0  0  0  0  0  0  0  0  0  0
   -3.9735    8.3515    0.6919 C   0  0  0  0  0  0  0  0  0  0  0  0
   -2.7939    8.9951    0.6143 N   0  0  0  0  0  0  0  0  0  0  0  0
   -2.8269   10.2885    0.2964 C   0  0  0  0  0  0  0  0  0  0  0  0
   -3.9270   11.0042    0.0468 N   0  0  0  0  0  0  0  0  0  0  0  0
   -5.0948   10.3627    0.1514 C   0  0  0  0  0  0  0  0  0  0  0  0
   -6.2544   11.0653   -0.1421 C   0  0  0  0  0  0  0  0  0  0  0  0
   -7.5183   10.4758   -0.0547 C   0  0  0  0  0  0  0  0  0  0  0  0
   -7.6362    9.1519    0.3467 C   0  0  0  0  0  0  0  0  0  0  0  0
   -6.4853    8.4164    0.6254 C   0  0  0  0  0  0  0  0  0  0  0  0
   -5.2011    9.0132    0.5184 C   0  0  0  0  0  0  0  0  0  0  0  0
   -2.6678    4.8742    1.0961 C   0  0  0  0  0  0  0  0  0  0  0  0
   -1.6808    4.0457    0.5473 C   0  0  0  0  0  0  0  0  0  0  0  0
   -1.1830    2.8268    0.9210 N   0  0  0  0  0  0  0  0  0  0  0  0
    1.7372    1.0929   -0.5405 C   0  0  0  0  0  0  0  0  0  0  0  0
    2.5385   -2.1740   -0.0855 H   0  0  0  0  0  0  0  0  0  0  0  0
    0.2606   -2.1872    0.8897 H   0  0  0  0  0  0  0  0  0  0  0  0
   -0.7132    5.8019   -2.1866 H   0  0  0  0  0  0  0  0  0  0  0  0
   -2.4571    7.2971   -1.3007 H   0  0  0  0  0  0  0  0  0  0  0  0
   -4.2535    6.7413    1.8546 H   0  0  0  0  0  0  0  0  0  0  0  0
   -1.8746   10.7986    0.2241 H   0  0  0  0  0  0  0  0  0  0  0  0
   -6.1698   12.0991   -0.4681 H   0  0  0  0  0  0  0  0  0  0  0  0
   -8.4025   11.0567   -0.3055 H   0  0  0  0  0  0  0  0  0  0  0  0
   -8.6172    8.6903    0.4240 H   0  0  0  0  0  0  0  0  0  0  0  0
   -6.5855    7.3717    0.9110 H   0  0  0  0  0  0  0  0  0  0  0  0
   -3.2080    4.5842    1.9897 H   0  0  0  0  0  0  0  0  0  0  0  0
   -1.4817    2.2857    1.7180 H   0  0  0  0  0  0  0  0  0  0  0  0
    2.1775    1.9926   -0.9667 H   0  0  0  0  0  0  0  0  0  0  0  0
  1  2  1  0  0  0  0
  2  3  1  0  0  0  0
  2 28  2  0  0  0  0
  3  4  2  0  0  0  0
  3 29  1  0  0  0  0
  4  5  1  0  0  0  0
  4 30  1  0  0  0  0
  5  6  1  0  0  0  0
  5  7  2  0  0  0  0
  7  8  1  0  0  0  0
  7 28  1  0  0  0  0
  8  9  2  0  0  0  0
  8 27  1  0  0  0  0
  9 10  1  0  0  0  0
 10 11  1  0  0  0  0
 10 26  2  0  0  0  0
 11 12  2  0  0  0  0
 11 31  1  0  0  0  0
 12 13  1  0  0  0  0
 12 32  1  0  0  0  0
 13 14  1  0  0  0  0
 13 25  2  0  0  0  0
 14 15  1  0  0  0  0
 14 33  1  0  0  0  0
 15 16  1  0  0  0  0
 15 24  2  0  0  0  0
 16 17  2  0  0  0  0
 17 18  1  0  0  0  0
 17 34  1  0  0  0  0
 18 19  2  0  0  0  0
 19 20  1  0  0  0  0
 19 24  1  0  0  0  0
 20 21  2  0  0  0  0
 20 35  1  0  0  0  0
 21 22  1  0  0  0  0
 21 36  1  0  0  0  0
 22 23  2  0  0  0  0
 22 37  1  0  0  0  0
 23 24  1  0  0  0  0
 23 38  1  0  0  0  0
 25 26  1  0  0  0  0
 25 39  1  0  0  0  0
 26 27  1  0  0  0  0
 27 40  1  0  0  0  0
 28 41  1  0  0  0  0
M  END
$$$$
