CHEMBL3593284
 OpenBabel04072215363D

 64 68  0  0  0  0  0  0  0  0999 V2000
    1.2870   -2.2879    0.3705 C   0  0  0  0  0  0  0  0  0  0  0  0
    0.9904   -0.9226    0.9094 C   0  0  0  0  0  0  0  0  0  0  0  0
    1.4996    0.1354    0.2400 N   0  0  0  0  0  0  0  0  0  0  0  0
    1.1787    1.3526    0.7026 C   0  0  0  0  0  0  0  0  0  0  0  0
    1.5978    2.4622   -0.0526 N   0  0  0  0  0  0  0  0  0  0  0  0
    0.9853    3.6750   -0.0439 C   0  0  0  0  0  0  0  0  0  0  0  0
    0.1792    4.1017    0.8967 N   0  0  0  0  0  0  0  0  0  0  0  0
   -0.3675    5.3118    0.5820 C   0  0  0  0  0  0  0  0  0  0  0  0
    0.0605    5.8670   -0.6067 C   0  0  0  0  0  0  0  0  0  0  0  0
   -0.3234    7.1604   -1.1662 C   0  0  0  0  0  0  0  0  0  0  0  0
   -0.6163    8.1972   -0.2812 C   0  0  0  0  0  0  0  0  0  0  0  0
   -1.0662    9.4292   -0.7467 C   0  0  0  0  0  0  0  0  0  0  0  0
   -1.2490    9.6792   -2.1096 C   0  0  0  0  0  0  0  0  0  0  0  0
   -1.7555   10.9127   -2.6118 N   0  0  0  0  0  0  0  0  0  0  0  0
   -2.1629   11.9668   -1.8182 C   0  0  0  0  0  0  0  0  0  0  0  0
   -2.1145   11.9424   -0.5898 O   0  0  0  0  0  0  0  0  0  0  0  0
   -2.6543   13.0543   -2.5191 N   0  0  0  0  0  0  0  0  0  0  0  0
   -3.0679   14.2603   -1.8716 C   0  0  0  0  0  0  0  0  0  0  0  0
   -2.6505   14.6027   -0.5758 C   0  0  0  0  0  0  0  0  0  0  0  0
   -3.1427   15.7288    0.0786 C   0  0  0  0  0  0  0  0  0  0  0  0
   -4.0366   16.5659   -0.5717 C   0  0  0  0  0  0  0  0  0  0  0  0
   -4.4225   16.2759   -1.8799 C   0  0  0  0  0  0  0  0  0  0  0  0
   -3.9356   15.1304   -2.5340 C   0  0  0  0  0  0  0  0  0  0  0  0
   -0.9292    8.6529   -3.0053 C   0  0  0  0  0  0  0  0  0  0  0  0
   -0.4740    7.4038   -2.5367 C   0  0  0  0  0  0  0  0  0  0  0  0
    1.1919    4.8010   -1.3401 S   0  0  0  0  0  0  0  0  0  0  0  0
    0.4318    1.4831    1.8532 C   0  0  0  0  0  0  0  0  0  0  0  0
   -0.0590    0.3618    2.4826 C   0  0  0  0  0  0  0  0  0  0  0  0
   -0.9205    0.5666    3.5566 N   0  0  0  0  0  0  0  0  0  0  0  0
   -1.9248   -0.4466    3.8280 C   0  0  0  0  0  0  0  0  0  0  0  0
   -3.1106    0.2663    4.4876 C   0  0  0  0  0  0  0  0  0  0  0  0
   -2.7008    1.0614    5.7391 C   0  0  0  0  0  0  0  0  0  0  0  0
   -2.4315    0.1761    6.8783 N   0  0  0  0  0  0  0  0  0  0  0  0
   -1.4941    1.9682    5.4495 C   0  0  0  0  0  0  0  0  0  0  0  0
   -0.3620    1.2262    4.7392 C   0  0  0  0  0  0  0  0  0  0  0  0
    0.2011   -0.8582    2.0016 N   0  0  0  0  0  0  0  0  0  0  0  0
    1.9221   -2.2298   -0.5187 H   0  0  0  0  0  0  0  0  0  0  0  0
    0.3539   -2.7893    0.0959 H   0  0  0  0  0  0  0  0  0  0  0  0
    1.8021   -2.8878    1.1266 H   0  0  0  0  0  0  0  0  0  0  0  0
    2.1095    2.1662   -0.8725 H   0  0  0  0  0  0  0  0  0  0  0  0
   -1.0824    5.7485    1.2680 H   0  0  0  0  0  0  0  0  0  0  0  0
   -0.5096    8.0747    0.7953 H   0  0  0  0  0  0  0  0  0  0  0  0
   -1.2657   10.1635    0.0236 H   0  0  0  0  0  0  0  0  0  0  0  0
   -1.8167   11.0138   -3.6143 H   0  0  0  0  0  0  0  0  0  0  0  0
   -2.9990   12.8958   -3.4503 H   0  0  0  0  0  0  0  0  0  0  0  0
   -1.9353   14.0000   -0.0247 H   0  0  0  0  0  0  0  0  0  0  0  0
   -2.8265   15.9327    1.0993 H   0  0  0  0  0  0  0  0  0  0  0  0
   -4.4280   17.4390   -0.0566 H   0  0  0  0  0  0  0  0  0  0  0  0
   -5.1220   16.9365   -2.3859 H   0  0  0  0  0  0  0  0  0  0  0  0
   -4.2766   14.9251   -3.5435 H   0  0  0  0  0  0  0  0  0  0  0  0
   -1.0451    8.7910   -4.0766 H   0  0  0  0  0  0  0  0  0  0  0  0
   -0.2690    6.6171   -3.2589 H   0  0  0  0  0  0  0  0  0  0  0  0
    0.1446    2.4428    2.2524 H   0  0  0  0  0  0  0  0  0  0  0  0
   -1.5192   -1.2299    4.4776 H   0  0  0  0  0  0  0  0  0  0  0  0
   -2.2804   -0.9205    2.9056 H   0  0  0  0  0  0  0  0  0  0  0  0
   -3.9009   -0.4556    4.7222 H   0  0  0  0  0  0  0  0  0  0  0  0
   -3.5409    0.9732    3.7637 H   0  0  0  0  0  0  0  0  0  0  0  0
   -3.5418    1.7017    6.0317 H   0  0  0  0  0  0  0  0  0  0  0  0
   -1.6481   -0.4424    6.6747 H   0  0  0  0  0  0  0  0  0  0  0  0
   -3.2366   -0.4308    7.0324 H   0  0  0  0  0  0  0  0  0  0  0  0
   -1.1217    2.4306    6.3718 H   0  0  0  0  0  0  0  0  0  0  0  0
   -1.8283    2.7926    4.8044 H   0  0  0  0  0  0  0  0  0  0  0  0
    0.0938    0.4808    5.4023 H   0  0  0  0  0  0  0  0  0  0  0  0
    0.4253    1.9489    4.4915 H   0  0  0  0  0  0  0  0  0  0  0  0
  1  2  1  0  0  0  0
  1 37  1  0  0  0  0
  1 38  1  0  0  0  0
  1 39  1  0  0  0  0
  2  3  1  0  0  0  0
  2 36  2  0  0  0  0
  3  4  2  0  0  0  0
  4  5  1  0  0  0  0
  4 27  1  0  0  0  0
  5  6  1  0  0  0  0
  5 40  1  0  0  0  0
  6  7  2  0  0  0  0
  6 26  1  0  0  0  0
  7  8  1  0  0  0  0
  8  9  2  0  0  0  0
  8 41  1  0  0  0  0
  9 10  1  0  0  0  0
  9 26  1  0  0  0  0
 10 11  1  0  0  0  0
 10 25  2  0  0  0  0
 11 12  2  0  0  0  0
 11 42  1  0  0  0  0
 12 13  1  0  0  0  0
 12 43  1  0  0  0  0
 13 14  1  0  0  0  0
 13 24  2  0  0  0  0
 14 15  1  0  0  0  0
 14 44  1  0  0  0  0
 15 16  2  0  0  0  0
 15 17  1  0  0  0  0
 17 18  1  0  0  0  0
 17 45  1  0  0  0  0
 18 19  1  0  0  0  0
 18 23  2  0  0  0  0
 19 20  2  0  0  0  0
 19 46  1  0  0  0  0
 20 21  1  0  0  0  0
 20 47  1  0  0  0  0
 21 22  2  0  0  0  0
 21 48  1  0  0  0  0
 22 23  1  0  0  0  0
 22 49  1  0  0  0  0
 23 50  1  0  0  0  0
 24 25  1  0  0  0  0
 24 51  1  0  0  0  0
 25 52  1  0  0  0  0
 27 28  2  0  0  0  0
 27 53  1  0  0  0  0
 28 29  1  0  0  0  0
 28 36  1  0  0  0  0
 29 30  1  0  0  0  0
 29 35  1  0  0  0  0
 30 31  1  0  0  0  0
 30 54  1  0  0  0  0
 30 55  1  0  0  0  0
 31 32  1  0  0  0  0
 31 56  1  0  0  0  0
 31 57  1  0  0  0  0
 32 33  1  0  0  0  0
 32 34  1  0  0  0  0
 32 58  1  0  0  0  0
 33 59  1  0  0  0  0
 33 60  1  0  0  0  0
 34 35  1  0  0  0  0
 34 61  1  0  0  0  0
 34 62  1  0  0  0  0
 35 63  1  0  0  0  0
 35 64  1  0  0  0  0
M  END
$$$$
