CHEMBL233669
 OpenBabel04072215363D

 40 43  0  0  0  0  0  0  0  0999 V2000
   -3.3430    0.3178    1.1541 C   0  0  0  0  0  0  0  0  0  0  0  0
   -1.9080    0.1210    0.8412 C   0  0  0  0  0  0  0  0  0  0  0  0
   -1.0487   -0.9209    1.1253 C   0  0  0  0  0  0  0  0  0  0  0  0
    0.2304   -0.5952    0.5921 C   0  0  0  0  0  0  0  0  0  0  0  0
    1.4811   -1.2442    0.5689 C   0  0  0  0  0  0  0  0  0  0  0  0
    2.5903   -0.6054   -0.0102 C   0  0  0  0  0  0  0  0  0  0  0  0
    3.8334   -1.2647   -0.0025 N   0  0  0  0  0  0  0  0  0  0  0  0
    5.0957   -0.6755   -0.0232 C   0  0  0  0  0  0  0  0  0  0  0  0
    6.0777   -1.3815   -0.5919 N   0  0  0  0  0  0  0  0  0  0  0  0
    7.3101   -0.8394   -0.5496 C   0  0  0  0  0  0  0  0  0  0  0  0
    7.6048    0.3698    0.0408 C   0  0  0  0  0  0  0  0  0  0  0  0
    8.9640    0.7930    0.0904 C   0  0  0  0  0  0  0  0  0  0  0  0
   10.0782    1.1253    0.0975 N   0  0  0  0  0  0  0  0  0  0  0  0
    6.5375    1.0614    0.5805 C   0  0  0  0  0  0  0  0  0  0  0  0
    6.6039    2.3898    1.2489 C   0  0  0  0  0  0  0  0  0  0  0  0
    7.5038    3.3992    0.8546 C   0  0  0  0  0  0  0  0  0  0  0  0
    7.5867    4.6173    1.5377 C   0  0  0  0  0  0  0  0  0  0  0  0
    6.7405    4.8798    2.6080 C   0  0  0  0  0  0  0  0  0  0  0  0
    5.8016    3.9271    2.9876 C   0  0  0  0  0  0  0  0  0  0  0  0
    5.7365    2.6989    2.3173 C   0  0  0  0  0  0  0  0  0  0  0  0
    5.2885    0.5255    0.5492 N   0  0  0  0  0  0  0  0  0  0  0  0
    2.4212    0.6468   -0.6124 C   0  0  0  0  0  0  0  0  0  0  0  0
    1.1868    1.3013   -0.6247 C   0  0  0  0  0  0  0  0  0  0  0  0
    0.1146    0.6580   -0.0044 C   0  0  0  0  0  0  0  0  0  0  0  0
   -1.1883    1.0674    0.1552 N   0  0  0  0  0  0  0  0  0  0  0  0
   -3.7520   -0.5461    1.6869 H   0  0  0  0  0  0  0  0  0  0  0  0
   -3.9199    0.4544    0.2338 H   0  0  0  0  0  0  0  0  0  0  0  0
   -3.4808    1.2029    1.7834 H   0  0  0  0  0  0  0  0  0  0  0  0
   -1.3068   -1.8224    1.6651 H   0  0  0  0  0  0  0  0  0  0  0  0
    1.5926   -2.2164    1.0390 H   0  0  0  0  0  0  0  0  0  0  0  0
    3.8528   -2.1066   -0.5632 H   0  0  0  0  0  0  0  0  0  0  0  0
    8.0846   -1.4447   -1.0183 H   0  0  0  0  0  0  0  0  0  0  0  0
    8.1585    3.2703   -0.0007 H   0  0  0  0  0  0  0  0  0  0  0  0
    8.3164    5.3612    1.2246 H   0  0  0  0  0  0  0  0  0  0  0  0
    6.8062    5.8269    3.1358 H   0  0  0  0  0  0  0  0  0  0  0  0
    5.1188    4.1345    3.8086 H   0  0  0  0  0  0  0  0  0  0  0  0
    4.9889    1.9745    2.6414 H   0  0  0  0  0  0  0  0  0  0  0  0
    3.2641    1.1399   -1.0906 H   0  0  0  0  0  0  0  0  0  0  0  0
    1.0805    2.2750   -1.0899 H   0  0  0  0  0  0  0  0  0  0  0  0
   -1.5526    1.9476   -0.1812 H   0  0  0  0  0  0  0  0  0  0  0  0
  1  2  1  0  0  0  0
  1 26  1  0  0  0  0
  1 27  1  0  0  0  0
  1 28  1  0  0  0  0
  2  3  2  0  0  0  0
  2 25  1  0  0  0  0
  3  4  1  0  0  0  0
  3 29  1  0  0  0  0
  4  5  1  0  0  0  0
  4 24  2  0  0  0  0
  5  6  2  0  0  0  0
  5 30  1  0  0  0  0
  6  7  1  0  0  0  0
  6 22  1  0  0  0  0
  7  8  1  0  0  0  0
  7 31  1  0  0  0  0
  8  9  1  0  0  0  0
  8 21  2  0  0  0  0
  9 10  2  0  0  0  0
 10 11  1  0  0  0  0
 10 32  1  0  0  0  0
 11 12  1  0  0  0  0
 11 14  2  0  0  0  0
 12 13  3  0  0  0  0
 14 15  1  0  0  0  0
 14 21  1  0  0  0  0
 15 16  1  0  0  0  0
 15 20  2  0  0  0  0
 16 17  2  0  0  0  0
 16 33  1  0  0  0  0
 17 18  1  0  0  0  0
 17 34  1  0  0  0  0
 18 19  2  0  0  0  0
 18 35  1  0  0  0  0
 19 20  1  0  0  0  0
 19 36  1  0  0  0  0
 20 37  1  0  0  0  0
 22 23  2  0  0  0  0
 22 38  1  0  0  0  0
 23 24  1  0  0  0  0
 23 39  1  0  0  0  0
 24 25  1  0  0  0  0
 25 40  1  0  0  0  0
M  END
$$$$
