CHEMBL3690536
 OpenBabel04072215373D

 46 49  0  0  0  0  0  0  0  0999 V2000
    2.3954   -1.6084    0.0870 O   0  0  0  0  0  0  0  0  0  0  0  0
    2.1126   -0.5227   -0.4007 C   0  0  0  0  0  0  0  0  0  0  0  0
    0.8163   -0.0450   -0.3831 N   0  0  0  0  0  0  0  0  0  0  0  0
   -0.2487   -0.9352    0.0931 C   0  0  0  0  0  0  0  0  0  0  0  0
   -0.7714   -1.9430   -0.9426 C   0  0  0  0  0  0  0  0  0  0  0  0
   -0.1926   -1.7712   -2.1543 F   0  0  0  0  0  0  0  0  0  0  0  0
   -0.5787   -3.2214   -0.5604 F   0  0  0  0  0  0  0  0  0  0  0  0
   -2.1053   -1.7703   -1.1219 F   0  0  0  0  0  0  0  0  0  0  0  0
    2.9724    0.3729   -0.9945 N   0  0  0  0  0  0  0  0  0  0  0  0
    4.3734    0.2528   -1.1295 C   0  0  0  0  0  0  0  0  0  0  0  0
    5.1170   -0.7941   -0.5910 C   0  0  0  0  0  0  0  0  0  0  0  0
    6.5049   -0.8153   -0.7276 C   0  0  0  0  0  0  0  0  0  0  0  0
    7.1612    0.2104   -1.4079 C   0  0  0  0  0  0  0  0  0  0  0  0
    6.4388    1.2621   -1.9863 C   0  0  0  0  0  0  0  0  0  0  0  0
    7.1446    2.2746   -2.7852 C   0  0  0  0  0  0  0  0  0  0  0  0
    8.2710    2.1204   -3.5829 C   0  0  0  0  0  0  0  0  0  0  0  0
    8.6038    3.2692   -4.2457 N   0  0  0  0  0  0  0  0  0  0  0  0
    7.7062    4.1501   -3.8704 C   0  0  0  0  0  0  0  0  0  0  0  0
    7.5419    5.5158   -4.2458 C   0  0  0  0  0  0  0  0  0  0  0  0
    6.5618    6.2778   -3.7010 C   0  0  0  0  0  0  0  0  0  0  0  0
    6.4395    7.6890   -4.0599 C   0  0  0  0  0  0  0  0  0  0  0  0
    7.4242    8.5593   -3.7914 C   0  0  0  0  0  0  0  0  0  0  0  0
    7.1836    9.9755   -4.0880 C   0  0  0  0  0  0  0  0  0  0  0  0
    8.0215   10.8349   -3.8473 O   0  0  0  0  0  0  0  0  0  0  0  0
    5.9643   10.2574   -4.6258 N   0  0  0  0  0  0  0  0  0  0  0  0
    5.0386    9.2843   -4.8539 C   0  0  0  0  0  0  0  0  0  0  0  0
    5.2196    8.0366   -4.5933 N   0  0  0  0  0  0  0  0  0  0  0  0
    5.6603    5.6714   -2.7123 C   0  0  0  0  0  0  0  0  0  0  0  0
    5.8195    4.3921   -2.3421 C   0  0  0  0  0  0  0  0  0  0  0  0
    6.8148    3.6173   -2.9384 N   0  0  0  0  0  0  0  0  0  0  0  0
    5.0407    1.2597   -1.8442 C   0  0  0  0  0  0  0  0  0  0  0  0
    0.5642    0.5909   -1.1242 H   0  0  0  0  0  0  0  0  0  0  0  0
   -1.0668   -0.2851    0.4182 H   0  0  0  0  0  0  0  0  0  0  0  0
    0.1076   -1.4754    0.9761 H   0  0  0  0  0  0  0  0  0  0  0  0
    2.5585    1.2239   -1.3401 H   0  0  0  0  0  0  0  0  0  0  0  0
    4.6494   -1.6127   -0.0532 H   0  0  0  0  0  0  0  0  0  0  0  0
    7.0738   -1.6398   -0.3045 H   0  0  0  0  0  0  0  0  0  0  0  0
    8.2451    0.1655   -1.4904 H   0  0  0  0  0  0  0  0  0  0  0  0
    8.8464    1.2155   -3.7340 H   0  0  0  0  0  0  0  0  0  0  0  0
    8.2376    5.9108   -4.9785 H   0  0  0  0  0  0  0  0  0  0  0  0
    8.3653    8.2897   -3.3353 H   0  0  0  0  0  0  0  0  0  0  0  0
    5.7706   11.2272   -4.8272 H   0  0  0  0  0  0  0  0  0  0  0  0
    4.0945    9.6546   -5.2847 H   0  0  0  0  0  0  0  0  0  0  0  0
    4.8791    6.2924   -2.2849 H   0  0  0  0  0  0  0  0  0  0  0  0
    5.1967    3.9421   -1.5839 H   0  0  0  0  0  0  0  0  0  0  0  0
    4.4491    2.0287   -2.3307 H   0  0  0  0  0  0  0  0  0  0  0  0
  1  2  2  0  0  0  0
  2  3  1  0  0  0  0
  2  9  1  0  0  0  0
  3  4  1  0  0  0  0
  3 32  1  0  0  0  0
  4  5  1  0  0  0  0
  4 33  1  0  0  0  0
  4 34  1  0  0  0  0
  5  6  1  0  0  0  0
  5  7  1  0  0  0  0
  5  8  1  0  0  0  0
  9 10  1  0  0  0  0
  9 35  1  0  0  0  0
 10 11  1  0  0  0  0
 10 31  2  0  0  0  0
 11 12  2  0  0  0  0
 11 36  1  0  0  0  0
 12 13  1  0  0  0  0
 12 37  1  0  0  0  0
 13 14  2  0  0  0  0
 13 38  1  0  0  0  0
 14 15  1  0  0  0  0
 14 31  1  0  0  0  0
 15 16  2  0  0  0  0
 15 30  1  0  0  0  0
 16 17  1  0  0  0  0
 16 39  1  0  0  0  0
 17 18  2  0  0  0  0
 18 19  1  0  0  0  0
 18 30  1  0  0  0  0
 19 20  2  0  0  0  0
 19 40  1  0  0  0  0
 20 21  1  0  0  0  0
 20 28  1  0  0  0  0
 21 22  2  0  0  0  0
 21 27  1  0  0  0  0
 22 23  1  0  0  0  0
 22 41  1  0  0  0  0
 23 24  2  0  0  0  0
 23 25  1  0  0  0  0
 25 26  1  0  0  0  0
 25 42  1  0  0  0  0
 26 27  2  0  0  0  0
 26 43  1  0  0  0  0
 28 29  2  0  0  0  0
 28 44  1  0  0  0  0
 29 30  1  0  0  0  0
 29 45  1  0  0  0  0
 31 46  1  0  0  0  0
M  END
$$$$
