CHEMBL241314
 OpenBabel04072215363D

 46 48  0  0  0  0  0  0  0  0999 V2000
   -5.8536    1.4623    3.0858 C   0  0  0  0  0  0  0  0  0  0  0  0
   -5.2447    1.7485    1.7374 C   0  0  0  0  0  0  0  0  0  0  0  0
   -3.8395    1.7600    1.6257 C   0  0  0  0  0  0  0  0  0  0  0  0
   -3.2289    2.3157    0.4962 C   0  0  0  0  0  0  0  0  0  0  0  0
   -1.8669    2.6337    0.5729 N   0  0  0  0  0  0  0  0  0  0  0  0
   -1.2301    3.8053    0.1927 C   0  0  0  0  0  0  0  0  0  0  0  0
   -0.0056    3.7452    0.0531 O   0  0  0  0  0  0  0  0  0  0  0  0
   -1.9601    5.0563    0.0427 C   0  0  0  0  0  0  0  0  0  0  0  0
   -1.6807    6.1127   -0.8153 C   0  0  0  0  0  0  0  0  0  0  0  0
   -0.6672    6.1859   -1.7168 N   0  0  0  0  0  0  0  0  0  0  0  0
   -0.7298    7.0624   -2.8823 C   0  0  0  0  0  0  0  0  0  0  0  0
   -0.3447    8.4890   -2.5723 C   0  0  0  0  0  0  0  0  0  0  0  0
    0.6783    8.8014   -1.6716 C   0  0  0  0  0  0  0  0  0  0  0  0
    0.9999   10.1340   -1.4569 C   0  0  0  0  0  0  0  0  0  0  0  0
    0.3916   11.1658   -2.0788 N   0  0  0  0  0  0  0  0  0  0  0  0
   -0.5878   10.8499   -2.9510 C   0  0  0  0  0  0  0  0  0  0  0  0
   -0.9811    9.5491   -3.2305 C   0  0  0  0  0  0  0  0  0  0  0  0
   -2.6532    7.0934   -0.5538 C   0  0  0  0  0  0  0  0  0  0  0  0
   -3.4986    6.7264    0.3937 N   0  0  0  0  0  0  0  0  0  0  0  0
   -3.0220    5.5309    0.7957 N   0  0  0  0  0  0  0  0  0  0  0  0
   -3.6713    4.9678    1.9537 C   0  0  0  0  0  0  0  0  0  0  0  0
   -3.9942    2.6677   -0.6105 C   0  0  0  0  0  0  0  0  0  0  0  0
   -5.3819    2.5472   -0.5544 C   0  0  0  0  0  0  0  0  0  0  0  0
   -6.0321    2.1315    0.6268 C   0  0  0  0  0  0  0  0  0  0  0  0
   -7.5485    2.1965    0.6338 C   0  0  0  0  0  0  0  0  0  0  0  0
   -8.1403    1.8384    1.8047 F   0  0  0  0  0  0  0  0  0  0  0  0
   -8.0036    3.4538    0.3656 F   0  0  0  0  0  0  0  0  0  0  0  0
   -8.1002    1.3932   -0.3180 F   0  0  0  0  0  0  0  0  0  0  0  0
   -5.0860    1.3190    3.8541 H   0  0  0  0  0  0  0  0  0  0  0  0
   -6.4731    0.5631    3.0520 H   0  0  0  0  0  0  0  0  0  0  0  0
   -6.4554    2.3199    3.4104 H   0  0  0  0  0  0  0  0  0  0  0  0
   -3.2307    1.5034    2.4917 H   0  0  0  0  0  0  0  0  0  0  0  0
   -1.2424    1.9598    0.9997 H   0  0  0  0  0  0  0  0  0  0  0  0
    0.0399    5.4596   -1.7504 H   0  0  0  0  0  0  0  0  0  0  0  0
   -1.7434    7.0300   -3.3084 H   0  0  0  0  0  0  0  0  0  0  0  0
   -0.0567    6.6800   -3.6572 H   0  0  0  0  0  0  0  0  0  0  0  0
    1.2085    8.0231   -1.1326 H   0  0  0  0  0  0  0  0  0  0  0  0
    1.7823   10.4124   -0.7577 H   0  0  0  0  0  0  0  0  0  0  0  0
   -1.0628   11.6967   -3.4377 H   0  0  0  0  0  0  0  0  0  0  0  0
   -1.7760    9.3747   -3.9484 H   0  0  0  0  0  0  0  0  0  0  0  0
   -2.7708    8.0736   -1.0030 H   0  0  0  0  0  0  0  0  0  0  0  0
   -4.0230    5.7731    2.6036 H   0  0  0  0  0  0  0  0  0  0  0  0
   -2.9807    4.3353    2.5116 H   0  0  0  0  0  0  0  0  0  0  0  0
   -4.5521    4.4322    1.6037 H   0  0  0  0  0  0  0  0  0  0  0  0
   -3.5268    3.0556   -1.5128 H   0  0  0  0  0  0  0  0  0  0  0  0
   -5.9696    2.8518   -1.4206 H   0  0  0  0  0  0  0  0  0  0  0  0
  1  2  1  0  0  0  0
  1 29  1  0  0  0  0
  1 30  1  0  0  0  0
  1 31  1  0  0  0  0
  2  3  1  0  0  0  0
  2 24  2  0  0  0  0
  3  4  2  0  0  0  0
  3 32  1  0  0  0  0
  4  5  1  0  0  0  0
  4 22  1  0  0  0  0
  5  6  1  0  0  0  0
  5 33  1  0  0  0  0
  6  7  2  0  0  0  0
  6  8  1  0  0  0  0
  8  9  2  0  0  0  0
  8 20  1  0  0  0  0
  9 10  1  0  0  0  0
  9 18  1  0  0  0  0
 10 11  1  0  0  0  0
 10 34  1  0  0  0  0
 11 12  1  0  0  0  0
 11 35  1  0  0  0  0
 11 36  1  0  0  0  0
 12 13  1  0  0  0  0
 12 17  2  0  0  0  0
 13 14  2  0  0  0  0
 13 37  1  0  0  0  0
 14 15  1  0  0  0  0
 14 38  1  0  0  0  0
 15 16  2  0  0  0  0
 16 17  1  0  0  0  0
 16 39  1  0  0  0  0
 17 40  1  0  0  0  0
 18 19  2  0  0  0  0
 18 41  1  0  0  0  0
 19 20  1  0  0  0  0
 20 21  1  0  0  0  0
 21 42  1  0  0  0  0
 21 43  1  0  0  0  0
 21 44  1  0  0  0  0
 22 23  2  0  0  0  0
 22 45  1  0  0  0  0
 23 24  1  0  0  0  0
 23 46  1  0  0  0  0
 24 25  1  0  0  0  0
 25 26  1  0  0  0  0
 25 27  1  0  0  0  0
 25 28  1  0  0  0  0
M  END
$$$$
