CHEMBL91815
 OpenBabel04072215383D

 59 63  0  0  0  0  0  0  0  0999 V2000
    1.6616    0.9113    0.4984 C   0  0  0  0  0  0  0  0  0  0  0  0
    2.4229   -0.2206    0.0970 O   0  0  0  0  0  0  0  0  0  0  0  0
    3.0890   -0.1168   -1.0921 C   0  0  0  0  0  0  0  0  0  0  0  0
    3.0457    0.9705   -1.9581 C   0  0  0  0  0  0  0  0  0  0  0  0
    3.7805    0.9480   -3.1493 C   0  0  0  0  0  0  0  0  0  0  0  0
    4.5972   -0.1447   -3.4991 C   0  0  0  0  0  0  0  0  0  0  0  0
    5.4176   -0.1299   -4.7311 C   0  0  0  0  0  0  0  0  0  0  0  0
    5.9347    1.0996   -5.2230 C   0  0  0  0  0  0  0  0  0  0  0  0
    6.7144    1.1716   -6.3777 C   0  0  0  0  0  0  0  0  0  0  0  0
    6.9977   -0.0019   -7.0418 C   0  0  0  0  0  0  0  0  0  0  0  0
    6.5257   -1.2214   -6.5678 C   0  0  0  0  0  0  0  0  0  0  0  0
    5.7289   -1.3113   -5.4398 C   0  0  0  0  0  0  0  0  0  0  0  0
    6.9736   -2.2610   -7.3769 N   0  0  0  0  0  0  0  0  0  0  0  0
    7.7598   -1.7872   -8.4237 C   0  0  0  0  0  0  0  0  0  0  0  0
    8.3261   -2.4503   -9.2719 O   0  0  0  0  0  0  0  0  0  0  0  0
    7.7641   -0.2899   -8.2633 C   0  0  0  0  0  0  0  0  0  0  0  0
    8.2583    0.7053   -9.0119 C   0  0  0  0  0  0  0  0  0  0  0  0
    8.9451    0.6737  -10.2498 C   0  0  0  0  0  0  0  0  0  0  0  0
    9.3584   -0.5021  -10.8281 N   0  0  0  0  0  0  0  0  0  0  0  0
    9.9993   -0.2265  -12.0022 C   0  0  0  0  0  0  0  0  0  0  0  0
   10.0382    1.1383  -12.1800 C   0  0  0  0  0  0  0  0  0  0  0  0
    9.3415    1.7278  -11.0822 C   0  0  0  0  0  0  0  0  0  0  0  0
    9.0998    3.1940  -10.8546 C   0  0  0  0  0  0  0  0  0  0  0  0
    8.1426    3.7947  -11.8812 C   0  0  0  0  0  0  0  0  0  0  0  0
    7.8413    5.2409  -11.5845 C   0  0  0  0  0  0  0  0  0  0  0  0
    8.2565    5.8719  -10.6264 O   0  0  0  0  0  0  0  0  0  0  0  0
    7.0308    5.7943  -12.5183 O   0  0  0  0  0  0  0  0  0  0  0  0
   10.7501    1.7700  -13.3335 C   0  0  0  0  0  0  0  0  0  0  0  0
   11.1247    0.7358  -14.4131 C   0  0  0  0  0  0  0  0  0  0  0  0
   11.6237   -0.5928  -13.8173 C   0  0  0  0  0  0  0  0  0  0  0  0
   10.5567   -1.2494  -12.9252 C   0  0  0  0  0  0  0  0  0  0  0  0
    4.6194   -1.2303   -2.6119 C   0  0  0  0  0  0  0  0  0  0  0  0
    3.8707   -1.2193   -1.4290 C   0  0  0  0  0  0  0  0  0  0  0  0
    1.2097    0.6853    1.4677 H   0  0  0  0  0  0  0  0  0  0  0  0
    0.8499    1.1111   -0.2098 H   0  0  0  0  0  0  0  0  0  0  0  0
    2.3007    1.7923    0.6250 H   0  0  0  0  0  0  0  0  0  0  0  0
    2.4545    1.8546   -1.7445 H   0  0  0  0  0  0  0  0  0  0  0  0
    3.7000    1.8140   -3.8027 H   0  0  0  0  0  0  0  0  0  0  0  0
    5.7443    2.0313   -4.6925 H   0  0  0  0  0  0  0  0  0  0  0  0
    7.0800    2.1352   -6.7173 H   0  0  0  0  0  0  0  0  0  0  0  0
    5.3520   -2.2765   -5.1176 H   0  0  0  0  0  0  0  0  0  0  0  0
    6.7965   -3.2436   -7.2296 H   0  0  0  0  0  0  0  0  0  0  0  0
    8.0921    1.7127   -8.6408 H   0  0  0  0  0  0  0  0  0  0  0  0
    9.2105   -1.4322  -10.4470 H   0  0  0  0  0  0  0  0  0  0  0  0
   10.0609    3.7248  -10.8691 H   0  0  0  0  0  0  0  0  0  0  0  0
    8.6901    3.3630   -9.8525 H   0  0  0  0  0  0  0  0  0  0  0  0
    7.1973    3.2407  -11.8860 H   0  0  0  0  0  0  0  0  0  0  0  0
    8.5815    3.7495  -12.8813 H   0  0  0  0  0  0  0  0  0  0  0  0
    6.7731    5.1754  -13.2288 H   0  0  0  0  0  0  0  0  0  0  0  0
   11.6613    2.2520  -12.9593 H   0  0  0  0  0  0  0  0  0  0  0  0
   10.1364    2.5478  -13.7953 H   0  0  0  0  0  0  0  0  0  0  0  0
   11.8897    1.1619  -15.0719 H   0  0  0  0  0  0  0  0  0  0  0  0
   10.2451    0.5331  -15.0379 H   0  0  0  0  0  0  0  0  0  0  0  0
   12.5294   -0.4014  -13.2273 H   0  0  0  0  0  0  0  0  0  0  0  0
   11.9021   -1.2813  -14.6225 H   0  0  0  0  0  0  0  0  0  0  0  0
   10.9885   -2.0922  -12.3763 H   0  0  0  0  0  0  0  0  0  0  0  0
    9.7452   -1.6376  -13.5529 H   0  0  0  0  0  0  0  0  0  0  0  0
    5.2413   -2.1003   -2.8103 H   0  0  0  0  0  0  0  0  0  0  0  0
    3.9116   -2.0756   -0.7606 H   0  0  0  0  0  0  0  0  0  0  0  0
  1  2  1  0  0  0  0
  1 34  1  0  0  0  0
  1 35  1  0  0  0  0
  1 36  1  0  0  0  0
  2  3  1  0  0  0  0
  3  4  1  0  0  0  0
  3 33  2  0  0  0  0
  4  5  2  0  0  0  0
  4 37  1  0  0  0  0
  5  6  1  0  0  0  0
  5 38  1  0  0  0  0
  6  7  1  0  0  0  0
  6 32  2  0  0  0  0
  7  8  1  0  0  0  0
  7 12  2  0  0  0  0
  8  9  2  0  0  0  0
  8 39  1  0  0  0  0
  9 10  1  0  0  0  0
  9 40  1  0  0  0  0
 10 11  2  0  0  0  0
 10 16  1  0  0  0  0
 11 12  1  0  0  0  0
 11 13  1  0  0  0  0
 12 41  1  0  0  0  0
 13 14  1  0  0  0  0
 13 42  1  0  0  0  0
 14 15  2  0  0  0  0
 14 16  1  0  0  0  0
 16 17  2  0  0  0  0
 17 18  1  0  0  0  0
 17 43  1  0  0  0  0
 18 19  1  0  0  0  0
 18 22  2  0  0  0  0
 19 20  1  0  0  0  0
 19 44  1  0  0  0  0
 20 21  2  0  0  0  0
 20 31  1  0  0  0  0
 21 22  1  0  0  0  0
 21 28  1  0  0  0  0
 22 23  1  0  0  0  0
 23 24  1  0  0  0  0
 23 45  1  0  0  0  0
 23 46  1  0  0  0  0
 24 25  1  0  0  0  0
 24 47  1  0  0  0  0
 24 48  1  0  0  0  0
 25 26  2  0  0  0  0
 25 27  1  0  0  0  0
 27 49  1  0  0  0  0
 28 29  1  0  0  0  0
 28 50  1  0  0  0  0
 28 51  1  0  0  0  0
 29 30  1  0  0  0  0
 29 52  1  0  0  0  0
 29 53  1  0  0  0  0
 30 31  1  0  0  0  0
 30 54  1  0  0  0  0
 30 55  1  0  0  0  0
 31 56  1  0  0  0  0
 31 57  1  0  0  0  0
 32 33  1  0  0  0  0
 32 58  1  0  0  0  0
 33 59  1  0  0  0  0
M  END
$$$$
