CHEMBL4780971
 OpenBabel04072215383D

 68 73  0  0  0  0  0  0  0  0999 V2000
    1.1443    0.5034   -0.5828 O   0  0  0  0  0  0  0  0  0  0  0  0
    2.3454    0.2478   -0.6664 C   0  0  0  0  0  0  0  0  0  0  0  0
    2.8846   -0.9356   -1.0615 N   0  0  0  0  0  0  0  0  0  0  0  0
    2.2223   -2.0928   -1.5129 C   0  0  0  0  0  0  0  0  0  0  0  0
    0.8809   -2.1317   -1.8944 C   0  0  0  0  0  0  0  0  0  0  0  0
    0.3023   -3.3228   -2.3479 C   0  0  0  0  0  0  0  0  0  0  0  0
    1.0615   -4.4866   -2.4389 C   0  0  0  0  0  0  0  0  0  0  0  0
    2.4065   -4.4600   -2.0845 C   0  0  0  0  0  0  0  0  0  0  0  0
    2.9827   -3.2673   -1.6329 C   0  0  0  0  0  0  0  0  0  0  0  0
    3.2170    1.2527   -0.3340 N   0  0  0  0  0  0  0  0  0  0  0  0
    4.5991    1.2860   -0.3994 C   0  0  0  0  0  0  0  0  0  0  0  0
    5.1759    2.4439   -0.1441 N   0  0  0  0  0  0  0  0  0  0  0  0
    6.5090    2.4716   -0.2825 C   0  0  0  0  0  0  0  0  0  0  0  0
    7.3213    4.0672   -0.2378 S   0  0  0  0  0  0  0  0  0  0  0  0
    7.4792    4.2849   -1.9721 C   0  0  0  0  0  0  0  0  0  0  0  0
    6.4628    4.6977   -2.8052 C   0  0  0  0  0  0  0  0  0  0  0  0
    7.0289    4.7622   -4.0433 N   0  0  0  0  0  0  0  0  0  0  0  0
    8.0619    3.8632   -4.0984 C   0  0  0  0  0  0  0  0  0  0  0  0
    8.6148    3.1291   -5.1505 C   0  0  0  0  0  0  0  0  0  0  0  0
    9.7476    2.3682   -4.8550 C   0  0  0  0  0  0  0  0  0  0  0  0
   10.3758    2.4681   -3.6114 C   0  0  0  0  0  0  0  0  0  0  0  0
    9.8035    3.2125   -2.5731 C   0  0  0  0  0  0  0  0  0  0  0  0
    8.5488    3.8101   -2.7905 C   0  0  0  0  0  0  0  0  0  0  0  0
    7.2576    1.3588   -0.6075 C   0  0  0  0  0  0  0  0  0  0  0  0
    6.5922    0.2020   -0.8754 C   0  0  0  0  0  0  0  0  0  0  0  0
    7.2244   -0.9336   -1.3142 N   0  0  0  0  0  0  0  0  0  0  0  0
    8.6358   -1.2355   -1.0756 C   0  0  0  0  0  0  0  0  0  0  0  0
    9.3382   -1.5494   -2.4214 C   0  0  0  0  0  0  0  0  0  0  0  0
    8.7053   -2.6351   -3.2089 N   0  0  0  0  0  0  0  0  0  0  0  0
    8.7733   -3.9535   -2.5505 C   0  0  0  0  0  0  0  0  0  0  0  0
   10.1667   -4.4618   -2.2603 C   0  0  0  0  0  0  0  0  0  0  0  0
   10.5688   -4.7069   -0.9372 C   0  0  0  0  0  0  0  0  0  0  0  0
   11.8320   -5.2346   -0.6649 C   0  0  0  0  0  0  0  0  0  0  0  0
   12.7042   -5.5265   -1.7111 C   0  0  0  0  0  0  0  0  0  0  0  0
   12.3184   -5.2832   -3.0286 C   0  0  0  0  0  0  0  0  0  0  0  0
   11.0576   -4.7489   -3.3023 C   0  0  0  0  0  0  0  0  0  0  0  0
    7.2832   -2.2574   -3.4231 C   0  0  0  0  0  0  0  0  0  0  0  0
    6.4877   -1.9030   -2.1386 C   0  0  0  0  0  0  0  0  0  0  0  0
    5.2511    0.1611   -0.7691 N   0  0  0  0  0  0  0  0  0  0  0  0
    3.8897   -0.9963   -0.9327 H   0  0  0  0  0  0  0  0  0  0  0  0
    0.2578   -1.2425   -1.8481 H   0  0  0  0  0  0  0  0  0  0  0  0
   -0.7498   -3.3365   -2.6297 H   0  0  0  0  0  0  0  0  0  0  0  0
    0.6057   -5.4100   -2.7811 H   0  0  0  0  0  0  0  0  0  0  0  0
    3.0041   -5.3660   -2.1447 H   0  0  0  0  0  0  0  0  0  0  0  0
    4.0261   -3.2796   -1.3369 H   0  0  0  0  0  0  0  0  0  0  0  0
    2.7948    2.1284   -0.0448 H   0  0  0  0  0  0  0  0  0  0  0  0
    5.4366    4.9851   -2.6213 H   0  0  0  0  0  0  0  0  0  0  0  0
    6.7971    5.4364   -4.7656 H   0  0  0  0  0  0  0  0  0  0  0  0
    8.1368    3.0763   -6.1237 H   0  0  0  0  0  0  0  0  0  0  0  0
   10.1523    1.6951   -5.6089 H   0  0  0  0  0  0  0  0  0  0  0  0
   11.2959    1.9183   -3.4314 H   0  0  0  0  0  0  0  0  0  0  0  0
   10.2766    3.2517   -1.5969 H   0  0  0  0  0  0  0  0  0  0  0  0
    8.3326    1.4503   -0.7443 H   0  0  0  0  0  0  0  0  0  0  0  0
    8.7110   -2.1037   -0.4071 H   0  0  0  0  0  0  0  0  0  0  0  0
    9.1802   -0.4354   -0.5739 H   0  0  0  0  0  0  0  0  0  0  0  0
   10.4011   -1.7571   -2.2527 H   0  0  0  0  0  0  0  0  0  0  0  0
    9.3185   -0.6381   -3.0341 H   0  0  0  0  0  0  0  0  0  0  0  0
    8.3019   -4.6964   -3.2090 H   0  0  0  0  0  0  0  0  0  0  0  0
    8.1885   -3.9752   -1.6233 H   0  0  0  0  0  0  0  0  0  0  0  0
    9.8945   -4.5043   -0.1085 H   0  0  0  0  0  0  0  0  0  0  0  0
   12.1298   -5.4296    0.3614 H   0  0  0  0  0  0  0  0  0  0  0  0
   13.6831   -5.9490   -1.5004 H   0  0  0  0  0  0  0  0  0  0  0  0
   12.9957   -5.5185   -3.8448 H   0  0  0  0  0  0  0  0  0  0  0  0
   10.7628   -4.5664   -4.3338 H   0  0  0  0  0  0  0  0  0  0  0  0
    6.7607   -3.0541   -3.9676 H   0  0  0  0  0  0  0  0  0  0  0  0
    7.2636   -1.3850   -4.0899 H   0  0  0  0  0  0  0  0  0  0  0  0
    6.2987   -2.8072   -1.5465 H   0  0  0  0  0  0  0  0  0  0  0  0
    5.5138   -1.5240   -2.4656 H   0  0  0  0  0  0  0  0  0  0  0  0
  1  2  2  0  0  0  0
  2  3  1  0  0  0  0
  2 10  1  0  0  0  0
  3  4  1  0  0  0  0
  3 40  1  0  0  0  0
  4  5  1  0  0  0  0
  4  9  2  0  0  0  0
  5  6  2  0  0  0  0
  5 41  1  0  0  0  0
  6  7  1  0  0  0  0
  6 42  1  0  0  0  0
  7  8  2  0  0  0  0
  7 43  1  0  0  0  0
  8  9  1  0  0  0  0
  8 44  1  0  0  0  0
  9 45  1  0  0  0  0
 10 11  1  0  0  0  0
 10 46  1  0  0  0  0
 11 12  1  0  0  0  0
 11 39  2  0  0  0  0
 12 13  2  0  0  0  0
 13 14  1  0  0  0  0
 13 24  1  0  0  0  0
 14 15  1  0  0  0  0
 15 16  2  0  0  0  0
 15 23  1  0  0  0  0
 16 17  1  0  0  0  0
 16 47  1  0  0  0  0
 17 18  1  0  0  0  0
 17 48  1  0  0  0  0
 18 19  1  0  0  0  0
 18 23  2  0  0  0  0
 19 20  2  0  0  0  0
 19 49  1  0  0  0  0
 20 21  1  0  0  0  0
 20 50  1  0  0  0  0
 21 22  2  0  0  0  0
 21 51  1  0  0  0  0
 22 23  1  0  0  0  0
 22 52  1  0  0  0  0
 24 25  2  0  0  0  0
 24 53  1  0  0  0  0
 25 26  1  0  0  0  0
 25 39  1  0  0  0  0
 26 27  1  0  0  0  0
 26 38  1  0  0  0  0
 27 28  1  0  0  0  0
 27 54  1  0  0  0  0
 27 55  1  0  0  0  0
 28 29  1  0  0  0  0
 28 56  1  0  0  0  0
 28 57  1  0  0  0  0
 29 30  1  0  0  0  0
 29 37  1  0  0  0  0
 30 31  1  0  0  0  0
 30 58  1  0  0  0  0
 30 59  1  0  0  0  0
 31 32  1  0  0  0  0
 31 36  2  0  0  0  0
 32 33  2  0  0  0  0
 32 60  1  0  0  0  0
 33 34  1  0  0  0  0
 33 61  1  0  0  0  0
 34 35  2  0  0  0  0
 34 62  1  0  0  0  0
 35 36  1  0  0  0  0
 35 63  1  0  0  0  0
 36 64  1  0  0  0  0
 37 38  1  0  0  0  0
 37 65  1  0  0  0  0
 37 66  1  0  0  0  0
 38 67  1  0  0  0  0
 38 68  1  0  0  0  0
M  END
$$$$
