CHEMBL1276981
 OpenBabel04072215363D

 60 63  0  0  0  0  0  0  0  0999 V2000
    1.3088   -0.9578    6.3062 C   0  0  0  0  0  0  0  0  0  0  0  0
    2.7771   -0.8944    5.8982 C   0  0  0  0  0  0  0  0  0  0  0  0
    3.0257   -0.3474    4.5510 N   0  0  0  0  0  0  0  0  0  0  0  0
    2.4122    0.9630    4.3072 C   0  0  0  0  0  0  0  0  0  0  0  0
    3.0121    2.1236    5.0929 C   0  0  0  0  0  0  0  0  0  0  0  0
    4.4784   -0.3802    4.2786 C   0  0  0  0  0  0  0  0  0  0  0  0
    4.9087    0.0910    2.8718 C   0  0  0  0  0  0  0  0  0  0  0  0
    6.3574    0.0177    2.7034 N   0  0  0  0  0  0  0  0  0  0  0  0
    7.1748    1.1604    3.1051 C   0  0  0  0  0  0  0  0  0  0  0  0
    7.9454    1.7329    1.9171 C   0  0  0  0  0  0  0  0  0  0  0  0
    9.1048    0.8862    1.3705 C   0  0  0  0  0  0  0  0  0  0  0  0
    9.2749   -0.4518    2.0045 C   0  0  0  0  0  0  0  0  0  0  0  0
   10.5089   -1.0457    2.1148 N   0  0  0  0  0  0  0  0  0  0  0  0
   10.4146   -2.2640    2.7421 C   0  0  0  0  0  0  0  0  0  0  0  0
   11.5460   -3.1066    2.9284 C   0  0  0  0  0  0  0  0  0  0  0  0
   12.6498   -3.1747    2.1621 C   0  0  0  0  0  0  0  0  0  0  0  0
   13.0536   -2.3588    0.9569 C   0  0  0  0  0  0  0  0  0  0  0  0
   12.6180   -1.2845    0.5894 O   0  0  0  0  0  0  0  0  0  0  0  0
   14.1144   -3.0464    0.3867 N   0  0  0  0  0  0  0  0  0  0  0  0
   14.5052   -4.1153    1.1814 C   0  0  0  0  0  0  0  0  0  0  0  0
   15.5895   -4.9431    0.9661 C   0  0  0  0  0  0  0  0  0  0  0  0
   15.8646   -5.8997    1.9451 C   0  0  0  0  0  0  0  0  0  0  0  0
   15.0483   -5.9981    3.0847 C   0  0  0  0  0  0  0  0  0  0  0  0
   15.3541   -6.9070    4.0203 F   0  0  0  0  0  0  0  0  0  0  0  0
   13.9399   -5.1734    3.2738 C   0  0  0  0  0  0  0  0  0  0  0  0
   13.6775   -4.2231    2.3040 C   0  0  0  0  0  0  0  0  0  0  0  0
    9.0837   -2.4178    3.1077 C   0  0  0  0  0  0  0  0  0  0  0  0
    8.4455   -3.4889    3.9309 C   0  0  0  0  0  0  0  0  0  0  0  0
    8.3511   -1.3515    2.5058 C   0  0  0  0  0  0  0  0  0  0  0  0
    6.8953   -1.2410    2.4671 C   0  0  0  0  0  0  0  0  0  0  0  0
    6.1996   -2.2353    2.2903 O   0  0  0  0  0  0  0  0  0  0  0  0
    1.2016   -1.5605    7.2143 H   0  0  0  0  0  0  0  0  0  0  0  0
    0.6948   -1.4165    5.5247 H   0  0  0  0  0  0  0  0  0  0  0  0
    0.9108    0.0373    6.5289 H   0  0  0  0  0  0  0  0  0  0  0  0
    3.1609   -1.9223    5.9298 H   0  0  0  0  0  0  0  0  0  0  0  0
    3.3300   -0.3319    6.6605 H   0  0  0  0  0  0  0  0  0  0  0  0
    1.3353    0.9121    4.4998 H   0  0  0  0  0  0  0  0  0  0  0  0
    2.4673    1.1943    3.2365 H   0  0  0  0  0  0  0  0  0  0  0  0
    3.1178    1.8901    6.1562 H   0  0  0  0  0  0  0  0  0  0  0  0
    2.3633    3.0019    5.0109 H   0  0  0  0  0  0  0  0  0  0  0  0
    3.9959    2.4018    4.7032 H   0  0  0  0  0  0  0  0  0  0  0  0
    4.8248   -1.4146    4.4056 H   0  0  0  0  0  0  0  0  0  0  0  0
    5.0209    0.2073    5.0316 H   0  0  0  0  0  0  0  0  0  0  0  0
    4.6047    1.1208    2.6636 H   0  0  0  0  0  0  0  0  0  0  0  0
    4.4324   -0.5452    2.1166 H   0  0  0  0  0  0  0  0  0  0  0  0
    7.8469    0.8669    3.9209 H   0  0  0  0  0  0  0  0  0  0  0  0
    6.5163    1.9356    3.5126 H   0  0  0  0  0  0  0  0  0  0  0  0
    8.3416    2.7165    2.2013 H   0  0  0  0  0  0  0  0  0  0  0  0
    7.2400    1.9266    1.0981 H   0  0  0  0  0  0  0  0  0  0  0  0
   10.0323    1.4621    1.4949 H   0  0  0  0  0  0  0  0  0  0  0  0
    8.9769    0.7577    0.2891 H   0  0  0  0  0  0  0  0  0  0  0  0
   11.3613   -0.6659    1.7116 H   0  0  0  0  0  0  0  0  0  0  0  0
   11.4313   -3.8483    3.7144 H   0  0  0  0  0  0  0  0  0  0  0  0
   14.5947   -2.7129   -0.4360 H   0  0  0  0  0  0  0  0  0  0  0  0
   16.2176   -4.8477    0.0872 H   0  0  0  0  0  0  0  0  0  0  0  0
   16.7186   -6.5595    1.8461 H   0  0  0  0  0  0  0  0  0  0  0  0
   13.3366   -5.2786    4.1672 H   0  0  0  0  0  0  0  0  0  0  0  0
    9.1719   -4.0216    4.5478 H   0  0  0  0  0  0  0  0  0  0  0  0
    7.9189   -4.2051    3.2959 H   0  0  0  0  0  0  0  0  0  0  0  0
    7.7154   -3.0370    4.6137 H   0  0  0  0  0  0  0  0  0  0  0  0
  1  2  1  0  0  0  0
  1 32  1  0  0  0  0
  1 33  1  0  0  0  0
  1 34  1  0  0  0  0
  2  3  1  0  0  0  0
  2 35  1  0  0  0  0
  2 36  1  0  0  0  0
  3  4  1  0  0  0  0
  3  6  1  0  0  0  0
  4  5  1  0  0  0  0
  4 37  1  0  0  0  0
  4 38  1  0  0  0  0
  5 39  1  0  0  0  0
  5 40  1  0  0  0  0
  5 41  1  0  0  0  0
  6  7  1  0  0  0  0
  6 42  1  0  0  0  0
  6 43  1  0  0  0  0
  7  8  1  0  0  0  0
  7 44  1  0  0  0  0
  7 45  1  0  0  0  0
  8  9  1  0  0  0  0
  8 30  1  0  0  0  0
  9 10  1  0  0  0  0
  9 46  1  0  0  0  0
  9 47  1  0  0  0  0
 10 11  1  0  0  0  0
 10 48  1  0  0  0  0
 10 49  1  0  0  0  0
 11 12  1  0  0  0  0
 11 50  1  0  0  0  0
 11 51  1  0  0  0  0
 12 13  1  0  0  0  0
 12 29  2  0  0  0  0
 13 14  1  0  0  0  0
 13 52  1  0  0  0  0
 14 15  1  0  0  0  0
 14 27  2  0  0  0  0
 15 16  2  0  0  0  0
 15 53  1  0  0  0  0
 16 17  1  0  0  0  0
 16 26  1  0  0  0  0
 17 18  2  0  0  0  0
 17 19  1  0  0  0  0
 19 20  1  0  0  0  0
 19 54  1  0  0  0  0
 20 21  1  0  0  0  0
 20 26  2  0  0  0  0
 21 22  2  0  0  0  0
 21 55  1  0  0  0  0
 22 23  1  0  0  0  0
 22 56  1  0  0  0  0
 23 24  1  0  0  0  0
 23 25  2  0  0  0  0
 25 26  1  0  0  0  0
 25 57  1  0  0  0  0
 27 28  1  0  0  0  0
 27 29  1  0  0  0  0
 28 58  1  0  0  0  0
 28 59  1  0  0  0  0
 28 60  1  0  0  0  0
 29 30  1  0  0  0  0
 30 31  2  0  0  0  0
M  END
$$$$
