CHEMBL514014
 OpenBabel04072215383D

 53 56  0  0  0  0  0  0  0  0999 V2000
    0.5246   -4.8425   -0.5856 C   0  0  0  0  0  0  0  0  0  0  0  0
    1.3259   -3.9043    0.1213 O   0  0  0  0  0  0  0  0  0  0  0  0
    2.3385   -3.2900   -0.5687 C   0  0  0  0  0  0  0  0  0  0  0  0
    2.3401   -3.1865   -1.9653 C   0  0  0  0  0  0  0  0  0  0  0  0
    3.3221   -2.4540   -2.6551 C   0  0  0  0  0  0  0  0  0  0  0  0
    3.2330   -2.3006   -4.1622 C   0  0  0  0  0  0  0  0  0  0  0  0
    1.9554   -1.6259   -4.5533 C   0  0  0  0  0  0  0  0  0  0  0  0
    0.7209   -2.1605   -4.8826 C   0  0  0  0  0  0  0  0  0  0  0  0
   -0.2276   -1.1004   -4.8615 C   0  0  0  0  0  0  0  0  0  0  0  0
   -1.6213   -0.9753   -4.9737 C   0  0  0  0  0  0  0  0  0  0  0  0
   -2.4446   -2.1003   -5.1260 N   0  0  0  0  0  0  0  0  0  0  0  0
   -3.7271   -2.2222   -5.6875 C   0  0  0  0  0  0  0  0  0  0  0  0
   -4.3962   -1.1573   -6.3052 C   0  0  0  0  0  0  0  0  0  0  0  0
   -5.6721   -1.3175   -6.8510 C   0  0  0  0  0  0  0  0  0  0  0  0
   -6.3119   -2.5489   -6.7731 C   0  0  0  0  0  0  0  0  0  0  0  0
   -5.6714   -3.6106   -6.1394 C   0  0  0  0  0  0  0  0  0  0  0  0
   -6.5376   -5.2882   -6.0259 Br  0  0  0  0  0  0  0  0  0  0  0  0
   -4.3941   -3.4505   -5.5933 C   0  0  0  0  0  0  0  0  0  0  0  0
   -2.1438    0.2741   -4.8617 N   0  0  0  0  0  0  0  0  0  0  0  0
   -1.3416    1.3263   -4.6648 C   0  0  0  0  0  0  0  0  0  0  0  0
   -1.9718    2.5482   -4.4931 N   0  0  0  0  0  0  0  0  0  0  0  0
   -0.0093    1.3056   -4.5410 N   0  0  0  0  0  0  0  0  0  0  0  0
    0.4848    0.0652   -4.6500 C   0  0  0  0  0  0  0  0  0  0  0  0
    1.8088   -0.2574   -4.5259 N   0  0  0  0  0  0  0  0  0  0  0  0
    4.3406   -1.8394   -1.9211 C   0  0  0  0  0  0  0  0  0  0  0  0
    4.3584   -1.9301   -0.5227 C   0  0  0  0  0  0  0  0  0  0  0  0
    5.3486   -1.3686    0.2497 O   0  0  0  0  0  0  0  0  0  0  0  0
    5.9219   -0.1671   -0.2487 C   0  0  0  0  0  0  0  0  0  0  0  0
    3.3664   -2.6674    0.1608 C   0  0  0  0  0  0  0  0  0  0  0  0
    3.4637   -2.6414    1.5343 O   0  0  0  0  0  0  0  0  0  0  0  0
    3.0353   -3.8036    2.2312 C   0  0  0  0  0  0  0  0  0  0  0  0
   -0.1440   -5.3211    0.1363 H   0  0  0  0  0  0  0  0  0  0  0  0
    1.1437   -5.6235   -1.0395 H   0  0  0  0  0  0  0  0  0  0  0  0
   -0.1044   -4.3492   -1.3335 H   0  0  0  0  0  0  0  0  0  0  0  0
    1.5429   -3.6346   -2.5487 H   0  0  0  0  0  0  0  0  0  0  0  0
    3.2901   -3.2962   -4.6198 H   0  0  0  0  0  0  0  0  0  0  0  0
    4.0887   -1.7316   -4.5457 H   0  0  0  0  0  0  0  0  0  0  0  0
    0.5083   -3.2143   -5.0063 H   0  0  0  0  0  0  0  0  0  0  0  0
   -1.9584   -2.9763   -4.9974 H   0  0  0  0  0  0  0  0  0  0  0  0
   -3.9226   -0.1835   -6.3964 H   0  0  0  0  0  0  0  0  0  0  0  0
   -6.1578   -0.4748   -7.3381 H   0  0  0  0  0  0  0  0  0  0  0  0
   -7.3012   -2.6689   -7.2032 H   0  0  0  0  0  0  0  0  0  0  0  0
   -3.9212   -4.2915   -5.0926 H   0  0  0  0  0  0  0  0  0  0  0  0
   -2.9156    2.3708   -4.1744 H   0  0  0  0  0  0  0  0  0  0  0  0
   -1.3958    3.1307   -3.9035 H   0  0  0  0  0  0  0  0  0  0  0  0
    2.5311    0.4209   -4.3302 H   0  0  0  0  0  0  0  0  0  0  0  0
    5.1166   -1.2949   -2.4491 H   0  0  0  0  0  0  0  0  0  0  0  0
    6.4712    0.3059    0.5710 H   0  0  0  0  0  0  0  0  0  0  0  0
    5.1548    0.5377   -0.5879 H   0  0  0  0  0  0  0  0  0  0  0  0
    6.6388   -0.3814   -1.0474 H   0  0  0  0  0  0  0  0  0  0  0  0
    3.5133   -3.7944    3.2159 H   0  0  0  0  0  0  0  0  0  0  0  0
    3.3386   -4.7268    1.7255 H   0  0  0  0  0  0  0  0  0  0  0  0
    1.9557   -3.7766    2.4054 H   0  0  0  0  0  0  0  0  0  0  0  0
  1  2  1  0  0  0  0
  1 32  1  0  0  0  0
  1 33  1  0  0  0  0
  1 34  1  0  0  0  0
  2  3  1  0  0  0  0
  3  4  1  0  0  0  0
  3 29  2  0  0  0  0
  4  5  2  0  0  0  0
  4 35  1  0  0  0  0
  5  6  1  0  0  0  0
  5 25  1  0  0  0  0
  6  7  1  0  0  0  0
  6 36  1  0  0  0  0
  6 37  1  0  0  0  0
  7  8  2  0  0  0  0
  7 24  1  0  0  0  0
  8  9  1  0  0  0  0
  8 38  1  0  0  0  0
  9 10  1  0  0  0  0
  9 23  2  0  0  0  0
 10 11  1  0  0  0  0
 10 19  2  0  0  0  0
 11 12  1  0  0  0  0
 11 39  1  0  0  0  0
 12 13  1  0  0  0  0
 12 18  2  0  0  0  0
 13 14  2  0  0  0  0
 13 40  1  0  0  0  0
 14 15  1  0  0  0  0
 14 41  1  0  0  0  0
 15 16  2  0  0  0  0
 15 42  1  0  0  0  0
 16 17  1  0  0  0  0
 16 18  1  0  0  0  0
 18 43  1  0  0  0  0
 19 20  1  0  0  0  0
 20 21  1  0  0  0  0
 20 22  2  0  0  0  0
 21 44  1  0  0  0  0
 21 45  1  0  0  0  0
 22 23  1  0  0  0  0
 23 24  1  0  0  0  0
 24 46  1  0  0  0  0
 25 26  2  0  0  0  0
 25 47  1  0  0  0  0
 26 27  1  0  0  0  0
 26 29  1  0  0  0  0
 27 28  1  0  0  0  0
 28 48  1  0  0  0  0
 28 49  1  0  0  0  0
 28 50  1  0  0  0  0
 29 30  1  0  0  0  0
 30 31  1  0  0  0  0
 31 51  1  0  0  0  0
 31 52  1  0  0  0  0
 31 53  1  0  0  0  0
M  END
$$$$
