CHEMBL1094835
 OpenBabel04072215363D

 76 78  0  0  0  0  0  0  0  0999 V2000
    5.0402    0.5823    2.2163 C   0  0  0  0  0  0  0  0  0  0  0  0
    6.0907    0.9604    1.4049 O   0  0  0  0  0  0  0  0  0  0  0  0
    5.9531    1.6459    0.2434 C   0  0  0  0  0  0  0  0  0  0  0  0
    4.7078    2.1483   -0.1819 C   0  0  0  0  0  0  0  0  0  0  0  0
    4.5936    2.7985   -1.4034 C   0  0  0  0  0  0  0  0  0  0  0  0
    5.7182    2.9673   -2.2227 C   0  0  0  0  0  0  0  0  0  0  0  0
    5.5733    3.6295   -3.5577 C   0  0  0  0  0  0  0  0  0  0  0  0
    5.0590    5.0470   -3.4082 C   0  0  0  0  0  0  0  0  0  0  0  0
    4.9311    5.5915   -4.6622 O   0  0  0  0  0  0  0  0  0  0  0  0
    4.4970    6.8428   -4.9110 C   0  0  0  0  0  0  0  0  0  0  0  0
    4.0775    7.7097   -3.8688 C   0  0  0  0  0  0  0  0  0  0  0  0
    3.6457    8.9985   -4.1590 C   0  0  0  0  0  0  0  0  0  0  0  0
    3.6454    9.4084   -5.4963 C   0  0  0  0  0  0  0  0  0  0  0  0
    4.0434    8.5793   -6.5050 C   0  0  0  0  0  0  0  0  0  0  0  0
    4.4748    7.2789   -6.2448 C   0  0  0  0  0  0  0  0  0  0  0  0
    3.9163    9.2845   -7.6875 C   0  0  0  0  0  0  0  0  0  0  0  0
    4.2279    8.7331   -9.0672 C   0  0  0  0  0  0  0  0  0  0  0  0
    5.3199    9.4912   -9.8308 C   0  0  0  0  0  0  0  0  0  0  0  0
    6.5939    9.4635   -9.1173 N   0  0  0  0  0  0  0  0  0  0  0  0
    3.4288   10.5537   -7.3208 C   0  0  0  0  0  0  0  0  0  0  0  0
    3.2675   10.6044   -5.9652 N   0  0  0  0  0  0  0  0  0  0  0  0
    2.7914   11.6455   -5.0395 C   0  0  0  0  0  0  0  0  0  0  0  0
    2.3763   13.0061   -5.6014 C   0  0  0  0  0  0  0  0  0  0  0  0
    1.9420   13.8694   -4.3875 C   0  0  0  0  0  0  0  0  0  0  0  0
    1.4944   15.2781   -4.7705 C   0  0  0  0  0  0  0  0  0  0  0  0
    1.0626   16.0846   -3.5253 C   0  0  0  0  0  0  0  0  0  0  0  0
    0.6269   17.4805   -3.9090 C   0  0  0  0  0  0  0  0  0  0  0  0
   -0.4692   17.6677   -4.7682 C   0  0  0  0  0  0  0  0  0  0  0  0
   -0.8533   18.9541   -5.1596 C   0  0  0  0  0  0  0  0  0  0  0  0
   -0.1529   20.0723   -4.6932 C   0  0  0  0  0  0  0  0  0  0  0  0
   -0.5970   21.7187   -5.2697 S   0  0  0  0  0  0  0  0  0  0  0  0
   -1.7266   22.1160   -3.9017 C   0  0  0  0  0  0  0  0  0  0  0  0
    0.9250   19.8965   -3.8170 C   0  0  0  0  0  0  0  0  0  0  0  0
    1.3134   18.6093   -3.4248 C   0  0  0  0  0  0  0  0  0  0  0  0
    6.9666    2.4947   -1.7927 C   0  0  0  0  0  0  0  0  0  0  0  0
    7.0813    1.8375   -0.5657 C   0  0  0  0  0  0  0  0  0  0  0  0
    0.3850    0.8266    2.3079 Cl  0  0  0  0  0  0  0  0  0  0  0  0
    5.4262   -0.0088    3.0693 H   0  0  0  0  0  0  0  0  0  0  0  0
    4.3310   -0.0513    1.6385 H   0  0  0  0  0  0  0  0  0  0  0  0
    4.5113    1.4784    2.6051 H   0  0  0  0  0  0  0  0  0  0  0  0
    3.8147    2.0311    0.4160 H   0  0  0  0  0  0  0  0  0  0  0  0
    3.6207    3.1585   -1.7122 H   0  0  0  0  0  0  0  0  0  0  0  0
    4.8560    3.0426   -4.1715 H   0  0  0  0  0  0  0  0  0  0  0  0
    6.5470    3.6613   -4.0938 H   0  0  0  0  0  0  0  0  0  0  0  0
    5.7795    5.6460   -2.8064 H   0  0  0  0  0  0  0  0  0  0  0  0
    4.0666    5.0491   -2.9058 H   0  0  0  0  0  0  0  0  0  0  0  0
    4.0788    7.4024   -2.8332 H   0  0  0  0  0  0  0  0  0  0  0  0
    3.3250    9.6499   -3.3598 H   0  0  0  0  0  0  0  0  0  0  0  0
    4.7908    6.6115   -7.0347 H   0  0  0  0  0  0  0  0  0  0  0  0
    3.2994    8.7348   -9.6736 H   0  0  0  0  0  0  0  0  0  0  0  0
    4.5606    7.6756   -8.9871 H   0  0  0  0  0  0  0  0  0  0  0  0
    5.0071   10.5386  -10.0214 H   0  0  0  0  0  0  0  0  0  0  0  0
    5.4579    8.9830  -10.8136 H   0  0  0  0  0  0  0  0  0  0  0  0
    6.5183   10.0557   -8.2595 H   0  0  0  0  0  0  0  0  0  0  0  0
    7.3227    9.8954   -9.7315 H   0  0  0  0  0  0  0  0  0  0  0  0
    3.2048   11.3694   -8.0029 H   0  0  0  0  0  0  0  0  0  0  0  0
    3.6056   11.8303   -4.3055 H   0  0  0  0  0  0  0  0  0  0  0  0
    1.9106   11.2314   -4.4986 H   0  0  0  0  0  0  0  0  0  0  0  0
    1.5289   12.8851   -6.3099 H   0  0  0  0  0  0  0  0  0  0  0  0
    3.2348   13.4806   -6.1231 H   0  0  0  0  0  0  0  0  0  0  0  0
    2.7930   13.9522   -3.6728 H   0  0  0  0  0  0  0  0  0  0  0  0
    1.0997   13.3628   -3.8627 H   0  0  0  0  0  0  0  0  0  0  0  0
    0.6443   15.1934   -5.4785 H   0  0  0  0  0  0  0  0  0  0  0  0
    2.3372   15.8016   -5.2707 H   0  0  0  0  0  0  0  0  0  0  0  0
    1.9178   16.1336   -2.8144 H   0  0  0  0  0  0  0  0  0  0  0  0
    0.2216   15.5721   -3.0076 H   0  0  0  0  0  0  0  0  0  0  0  0
   -1.0199   16.8166   -5.1487 H   0  0  0  0  0  0  0  0  0  0  0  0
   -1.6847   19.0770   -5.8414 H   0  0  0  0  0  0  0  0  0  0  0  0
   -2.1502   23.1241   -4.0969 H   0  0  0  0  0  0  0  0  0  0  0  0
   -1.1759   22.1624   -2.9399 H   0  0  0  0  0  0  0  0  0  0  0  0
   -2.5725   21.3992   -3.8681 H   0  0  0  0  0  0  0  0  0  0  0  0
    1.4739   20.7550   -3.4523 H   0  0  0  0  0  0  0  0  0  0  0  0
    2.1586   18.4967   -2.7571 H   0  0  0  0  0  0  0  0  0  0  0  0
    7.8461    2.6204   -2.4130 H   0  0  0  0  0  0  0  0  0  0  0  0
    8.0473    1.4608   -0.2536 H   0  0  0  0  0  0  0  0  0  0  0  0
    1.5890    0.2671    1.9486 H   0  0  0  0  0  0  0  0  0  0  0  0
  1  2  1  0  0  0  0
  1 38  1  0  0  0  0
  1 39  1  0  0  0  0
  1 40  1  0  0  0  0
  2  3  1  0  0  0  0
  3  4  1  0  0  0  0
  3 36  2  0  0  0  0
  4  5  2  0  0  0  0
  4 41  1  0  0  0  0
  5  6  1  0  0  0  0
  5 42  1  0  0  0  0
  6  7  1  0  0  0  0
  6 35  2  0  0  0  0
  7  8  1  0  0  0  0
  7 43  1  0  0  0  0
  7 44  1  0  0  0  0
  8  9  1  0  0  0  0
  8 45  1  0  0  0  0
  8 46  1  0  0  0  0
  9 10  1  0  0  0  0
 10 11  1  0  0  0  0
 10 15  2  0  0  0  0
 11 12  2  0  0  0  0
 11 47  1  0  0  0  0
 12 13  1  0  0  0  0
 12 48  1  0  0  0  0
 13 14  2  0  0  0  0
 13 21  1  0  0  0  0
 14 15  1  0  0  0  0
 14 16  1  0  0  0  0
 15 49  1  0  0  0  0
 16 17  1  0  0  0  0
 16 20  2  0  0  0  0
 17 18  1  0  0  0  0
 17 50  1  0  0  0  0
 17 51  1  0  0  0  0
 18 19  1  0  0  0  0
 18 52  1  0  0  0  0
 18 53  1  0  0  0  0
 19 54  1  0  0  0  0
 19 55  1  0  0  0  0
 20 21  1  0  0  0  0
 20 56  1  0  0  0  0
 21 22  1  0  0  0  0
 22 23  1  0  0  0  0
 22 57  1  0  0  0  0
 22 58  1  0  0  0  0
 23 24  1  0  0  0  0
 23 59  1  0  0  0  0
 23 60  1  0  0  0  0
 24 25  1  0  0  0  0
 24 61  1  0  0  0  0
 24 62  1  0  0  0  0
 25 26  1  0  0  0  0
 25 63  1  0  0  0  0
 25 64  1  0  0  0  0
 26 27  1  0  0  0  0
 26 65  1  0  0  0  0
 26 66  1  0  0  0  0
 27 28  1  0  0  0  0
 27 34  2  0  0  0  0
 28 29  2  0  0  0  0
 28 67  1  0  0  0  0
 29 30  1  0  0  0  0
 29 68  1  0  0  0  0
 30 31  1  0  0  0  0
 30 33  2  0  0  0  0
 31 32  1  0  0  0  0
 32 69  1  0  0  0  0
 32 70  1  0  0  0  0
 32 71  1  0  0  0  0
 33 34  1  0  0  0  0
 33 72  1  0  0  0  0
 34 73  1  0  0  0  0
 35 36  1  0  0  0  0
 35 74  1  0  0  0  0
 36 75  1  0  0  0  0
 37 76  1  0  0  0  0
M  END
$$$$
