CHEMBL1242662
 OpenBabel04072215363D

 41 44  0  0  0  0  0  0  0  0999 V2000
    1.2541    0.5073   -0.0603 C   0  0  0  0  0  0  0  0  0  0  0  0
    2.7136    0.0764    0.0732 C   0  0  0  0  0  0  0  0  0  0  0  0
    3.5544    0.6139   -1.0796 C   0  0  0  0  0  0  0  0  0  0  0  0
    3.2795    0.4848    1.3742 N   0  0  0  0  0  0  0  0  0  0  0  0
    3.3128    1.7882    1.6730 N   0  0  0  0  0  0  0  0  0  0  0  0
    3.6907    1.8503    2.9697 C   0  0  0  0  0  0  0  0  0  0  0  0
    3.6243    3.1614    3.6248 C   0  0  0  0  0  0  0  0  0  0  0  0
    2.6315    4.0274    3.1314 C   0  0  0  0  0  0  0  0  0  0  0  0
    2.5683    5.3434    3.5302 C   0  0  0  0  0  0  0  0  0  0  0  0
    3.3999    5.7712    4.5437 C   0  0  0  0  0  0  0  0  0  0  0  0
    3.2851    7.0833    4.9357 C   0  0  0  0  0  0  0  0  0  0  0  0
    3.3344    7.2779    6.2965 C   0  0  0  0  0  0  0  0  0  0  0  0
    2.3901    8.0899    6.8487 O   0  0  0  0  0  0  0  0  0  0  0  0
    4.1257    6.4615    7.0845 C   0  0  0  0  0  0  0  0  0  0  0  0
    4.6975    5.3131    6.5100 C   0  0  0  0  0  0  0  0  0  0  0  0
    4.2373    4.8803    5.2440 C   0  0  0  0  0  0  0  0  0  0  0  0
    4.4445    3.5978    4.6797 C   0  0  0  0  0  0  0  0  0  0  0  0
    4.0069    0.5468    3.4570 C   0  0  0  0  0  0  0  0  0  0  0  0
    4.4319   -0.0784    4.6359 C   0  0  0  0  0  0  0  0  0  0  0  0
    4.6970    0.5657    5.8380 N   0  0  0  0  0  0  0  0  0  0  0  0
    4.5788   -1.4208    4.6473 N   0  0  0  0  0  0  0  0  0  0  0  0
    4.2846   -2.1148    3.5316 C   0  0  0  0  0  0  0  0  0  0  0  0
    3.8403   -1.6421    2.3604 N   0  0  0  0  0  0  0  0  0  0  0  0
    3.7362   -0.3029    2.3838 C   0  0  0  0  0  0  0  0  0  0  0  0
    0.8383    0.1393   -1.0002 H   0  0  0  0  0  0  0  0  0  0  0  0
    1.1523    1.5905   -0.0520 H   0  0  0  0  0  0  0  0  0  0  0  0
    0.6462    0.1170    0.7605 H   0  0  0  0  0  0  0  0  0  0  0  0
    2.7612   -1.0092    0.0676 H   0  0  0  0  0  0  0  0  0  0  0  0
    3.5261    1.7089   -1.1285 H   0  0  0  0  0  0  0  0  0  0  0  0
    3.1709    0.2307   -2.0301 H   0  0  0  0  0  0  0  0  0  0  0  0
    4.6010    0.3114   -0.9844 H   0  0  0  0  0  0  0  0  0  0  0  0
    1.9108    3.6769    2.3956 H   0  0  0  0  0  0  0  0  0  0  0  0
    1.8183    5.9995    3.0992 H   0  0  0  0  0  0  0  0  0  0  0  0
    4.0284    7.7226    4.4112 H   0  0  0  0  0  0  0  0  0  0  0  0
    1.6631    8.1312    6.1944 H   0  0  0  0  0  0  0  0  0  0  0  0
    4.2050    6.6564    8.1489 H   0  0  0  0  0  0  0  0  0  0  0  0
    5.3171    4.6708    7.1298 H   0  0  0  0  0  0  0  0  0  0  0  0
    5.2143    2.9555    5.0981 H   0  0  0  0  0  0  0  0  0  0  0  0
    4.0591    1.3241    6.0405 H   0  0  0  0  0  0  0  0  0  0  0  0
    4.7773   -0.1240    6.5784 H   0  0  0  0  0  0  0  0  0  0  0  0
    4.4131   -3.1913    3.5933 H   0  0  0  0  0  0  0  0  0  0  0  0
  1  2  1  0  0  0  0
  1 25  1  0  0  0  0
  1 26  1  0  0  0  0
  1 27  1  0  0  0  0
  2  3  1  0  0  0  0
  2  4  1  0  0  0  0
  2 28  1  0  0  0  0
  3 29  1  0  0  0  0
  3 30  1  0  0  0  0
  3 31  1  0  0  0  0
  4  5  1  0  0  0  0
  4 24  1  0  0  0  0
  5  6  2  0  0  0  0
  6  7  1  0  0  0  0
  6 18  1  0  0  0  0
  7  8  1  0  0  0  0
  7 17  2  0  0  0  0
  8  9  2  0  0  0  0
  8 32  1  0  0  0  0
  9 10  1  0  0  0  0
  9 33  1  0  0  0  0
 10 11  1  0  0  0  0
 10 16  2  0  0  0  0
 11 12  2  0  0  0  0
 11 34  1  0  0  0  0
 12 13  1  0  0  0  0
 12 14  1  0  0  0  0
 13 35  1  0  0  0  0
 14 15  2  0  0  0  0
 14 36  1  0  0  0  0
 15 16  1  0  0  0  0
 15 37  1  0  0  0  0
 16 17  1  0  0  0  0
 17 38  1  0  0  0  0
 18 19  1  0  0  0  0
 18 24  2  0  0  0  0
 19 20  1  0  0  0  0
 19 21  2  0  0  0  0
 20 39  1  0  0  0  0
 20 40  1  0  0  0  0
 21 22  1  0  0  0  0
 22 23  2  0  0  0  0
 22 41  1  0  0  0  0
 23 24  1  0  0  0  0
M  END
$$$$
