CHEMBL234451
 OpenBabel04072215363D

 48 50  0  0  0  0  0  0  0  0999 V2000
    1.6170    1.7995    0.6801 C   0  0  0  0  0  0  0  0  0  0  0  0
    0.5782    0.8586    0.1812 C   0  0  0  0  0  0  0  0  0  0  0  0
   -0.2385    1.0934   -0.8191 N   0  0  0  0  0  0  0  0  0  0  0  0
   -1.1454    0.0451   -0.9514 C   0  0  0  0  0  0  0  0  0  0  0  0
   -2.1374    0.1341   -2.0578 C   0  0  0  0  0  0  0  0  0  0  0  0
   -1.0395   -0.9566    0.0108 C   0  0  0  0  0  0  0  0  0  0  0  0
   -1.8852   -2.1428    0.2577 C   0  0  0  0  0  0  0  0  0  0  0  0
   -2.4321   -2.6524   -0.8864 N   0  0  0  0  0  0  0  0  0  0  0  0
   -3.2507   -3.7098   -0.7744 C   0  0  0  0  0  0  0  0  0  0  0  0
   -3.8392   -4.2263   -1.9300 N   0  0  0  0  0  0  0  0  0  0  0  0
   -4.7466   -5.2917   -2.0428 C   0  0  0  0  0  0  0  0  0  0  0  0
   -5.6486   -5.6054   -1.0169 C   0  0  0  0  0  0  0  0  0  0  0  0
   -6.4194   -6.7665   -1.0412 C   0  0  0  0  0  0  0  0  0  0  0  0
   -6.3200   -7.6558   -2.1146 C   0  0  0  0  0  0  0  0  0  0  0  0
   -7.0734   -8.9653   -2.0908 C   0  0  0  0  0  0  0  0  0  0  0  0
   -8.6004   -8.7911   -1.9892 C   0  0  0  0  0  0  0  0  0  0  0  0
   -9.3579  -10.0605   -2.0002 N   0  0  0  0  0  0  0  0  0  0  0  0
   -9.0008  -10.9318   -0.8782 C   0  0  0  0  0  0  0  0  0  0  0  0
  -10.7952   -9.7698   -1.9525 C   0  0  0  0  0  0  0  0  0  0  0  0
   -5.4483   -7.3430   -3.1612 C   0  0  0  0  0  0  0  0  0  0  0  0
   -4.6701   -6.1745   -3.1263 C   0  0  0  0  0  0  0  0  0  0  0  0
   -3.5088   -4.2972    0.4024 N   0  0  0  0  0  0  0  0  0  0  0  0
   -2.9705   -3.7721    1.5113 C   0  0  0  0  0  0  0  0  0  0  0  0
   -2.1537   -2.6746    1.5103 C   0  0  0  0  0  0  0  0  0  0  0  0
   -1.6430   -2.0780    3.0400 Cl  0  0  0  0  0  0  0  0  0  0  0  0
    0.3903   -0.6628    0.9296 S   0  0  0  0  0  0  0  0  0  0  0  0
    1.6727    2.6861    0.0437 H   0  0  0  0  0  0  0  0  0  0  0  0
    2.6027    1.3243    0.6941 H   0  0  0  0  0  0  0  0  0  0  0  0
    1.3769    2.1297    1.6981 H   0  0  0  0  0  0  0  0  0  0  0  0
   -1.9912    1.0495   -2.6403 H   0  0  0  0  0  0  0  0  0  0  0  0
   -3.1578    0.1402   -1.6648 H   0  0  0  0  0  0  0  0  0  0  0  0
   -2.0238   -0.7118   -2.7438 H   0  0  0  0  0  0  0  0  0  0  0  0
   -3.4615   -3.8257   -2.7739 H   0  0  0  0  0  0  0  0  0  0  0  0
   -5.7490   -4.9507   -0.1549 H   0  0  0  0  0  0  0  0  0  0  0  0
   -7.0639   -6.9792   -0.1923 H   0  0  0  0  0  0  0  0  0  0  0  0
   -6.6875   -9.5336   -1.2361 H   0  0  0  0  0  0  0  0  0  0  0  0
   -6.8356   -9.5480   -2.9888 H   0  0  0  0  0  0  0  0  0  0  0  0
   -8.9214   -8.1878   -2.8496 H   0  0  0  0  0  0  0  0  0  0  0  0
   -8.8573   -8.2150   -1.0909 H   0  0  0  0  0  0  0  0  0  0  0  0
   -7.9640  -11.2736   -0.9543 H   0  0  0  0  0  0  0  0  0  0  0  0
   -9.6121  -11.8416   -0.8872 H   0  0  0  0  0  0  0  0  0  0  0  0
   -9.1366  -10.4360    0.0897 H   0  0  0  0  0  0  0  0  0  0  0  0
  -11.0951   -9.1563   -2.8091 H   0  0  0  0  0  0  0  0  0  0  0  0
  -11.0768   -9.2411   -1.0339 H   0  0  0  0  0  0  0  0  0  0  0  0
  -11.3794  -10.6950   -2.0088 H   0  0  0  0  0  0  0  0  0  0  0  0
   -5.3315   -8.0281   -3.9980 H   0  0  0  0  0  0  0  0  0  0  0  0
   -3.9593   -5.9969   -3.9286 H   0  0  0  0  0  0  0  0  0  0  0  0
   -3.2521   -4.2784    2.4290 H   0  0  0  0  0  0  0  0  0  0  0  0
  1  2  1  0  0  0  0
  1 27  1  0  0  0  0
  1 28  1  0  0  0  0
  1 29  1  0  0  0  0
  2  3  2  0  0  0  0
  2 26  1  0  0  0  0
  3  4  1  0  0  0  0
  4  5  1  0  0  0  0
  4  6  2  0  0  0  0
  5 30  1  0  0  0  0
  5 31  1  0  0  0  0
  5 32  1  0  0  0  0
  6  7  1  0  0  0  0
  6 26  1  0  0  0  0
  7  8  1  0  0  0  0
  7 24  2  0  0  0  0
  8  9  2  0  0  0  0
  9 10  1  0  0  0  0
  9 22  1  0  0  0  0
 10 11  1  0  0  0  0
 10 33  1  0  0  0  0
 11 12  1  0  0  0  0
 11 21  2  0  0  0  0
 12 13  2  0  0  0  0
 12 34  1  0  0  0  0
 13 14  1  0  0  0  0
 13 35  1  0  0  0  0
 14 15  1  0  0  0  0
 14 20  2  0  0  0  0
 15 16  1  0  0  0  0
 15 36  1  0  0  0  0
 15 37  1  0  0  0  0
 16 17  1  0  0  0  0
 16 38  1  0  0  0  0
 16 39  1  0  0  0  0
 17 18  1  0  0  0  0
 17 19  1  0  0  0  0
 18 40  1  0  0  0  0
 18 41  1  0  0  0  0
 18 42  1  0  0  0  0
 19 43  1  0  0  0  0
 19 44  1  0  0  0  0
 19 45  1  0  0  0  0
 20 21  1  0  0  0  0
 20 46  1  0  0  0  0
 21 47  1  0  0  0  0
 22 23  2  0  0  0  0
 23 24  1  0  0  0  0
 23 48  1  0  0  0  0
 24 25  1  0  0  0  0
M  END
$$$$
