CHEMBL215847
 OpenBabel04072215363D

 74 78  0  0  0  0  0  0  0  0999 V2000
    2.8079   -0.3111    1.0990 C   0  0  0  0  0  0  0  0  0  0  0  0
    2.3808    0.3991   -0.0573 O   0  0  0  0  0  0  0  0  0  0  0  0
    3.1407    0.2485   -1.1821 C   0  0  0  0  0  0  0  0  0  0  0  0
    4.3335   -0.4622   -1.2858 C   0  0  0  0  0  0  0  0  0  0  0  0
    5.0360   -0.5229   -2.5060 C   0  0  0  0  0  0  0  0  0  0  0  0
    4.5643    0.1164   -3.6606 C   0  0  0  0  0  0  0  0  0  0  0  0
    5.2981    0.1256   -4.9084 N   0  0  0  0  0  0  0  0  0  0  0  0
    6.3532   -0.7700   -5.2298 C   0  0  0  0  0  0  0  0  0  0  0  0
    6.8219   -1.6389   -4.5091 O   0  0  0  0  0  0  0  0  0  0  0  0
    6.8555   -0.5703   -6.5302 O   0  0  0  0  0  0  0  0  0  0  0  0
    6.8378   -1.6056   -7.5082 C   0  0  0  0  0  0  0  0  0  0  0  0
    5.8153   -2.5677   -7.5918 C   0  0  0  0  0  0  0  0  0  0  0  0
    4.6642   -2.7425   -6.6429 C   0  0  0  0  0  0  0  0  0  0  0  0
    5.8411   -3.4756   -8.6703 C   0  0  0  0  0  0  0  0  0  0  0  0
    6.8023   -3.3920   -9.6709 C   0  0  0  0  0  0  0  0  0  0  0  0
    7.7782   -2.4035   -9.6070 C   0  0  0  0  0  0  0  0  0  0  0  0
    7.8307   -1.5225   -8.5147 C   0  0  0  0  0  0  0  0  0  0  0  0
    8.9714   -0.5459   -8.4351 C   0  0  0  0  0  0  0  0  0  0  0  0
    4.7621    0.9184   -5.9616 C   0  0  0  0  0  0  0  0  0  0  0  0
    4.7906    2.2919   -5.8286 C   0  0  0  0  0  0  0  0  0  0  0  0
    4.2596    2.9934   -6.8713 C   0  0  0  0  0  0  0  0  0  0  0  0
    3.7729    2.4069   -7.9733 N   0  0  0  0  0  0  0  0  0  0  0  0
    3.7746    1.0688   -8.0331 C   0  0  0  0  0  0  0  0  0  0  0  0
    3.2419    0.4416   -9.1594 N   0  0  0  0  0  0  0  0  0  0  0  0
    3.1974    0.9477  -10.4608 C   0  0  0  0  0  0  0  0  0  0  0  0
    4.1324    1.8857  -10.9031 C   0  0  0  0  0  0  0  0  0  0  0  0
    3.9964    2.5157  -12.1370 C   0  0  0  0  0  0  0  0  0  0  0  0
    2.9209    2.2426  -12.9859 C   0  0  0  0  0  0  0  0  0  0  0  0
    2.8242    2.9019  -14.1927 N   0  0  0  0  0  0  0  0  0  0  0  0
    2.1059    2.3322  -15.3357 C   0  0  0  0  0  0  0  0  0  0  0  0
    2.8328    2.7495  -16.6352 C   0  0  0  0  0  0  0  0  0  0  0  0
    2.9325    4.2219  -16.7630 N   0  0  0  0  0  0  0  0  0  0  0  0
    3.5832    4.5908  -18.0138 C   0  0  0  0  0  0  0  0  0  0  0  0
    3.6852    4.7437  -15.5982 C   0  0  0  0  0  0  0  0  0  0  0  0
    3.0140    4.3653  -14.2575 C   0  0  0  0  0  0  0  0  0  0  0  0
    2.0158    1.2599  -12.5634 C   0  0  0  0  0  0  0  0  0  0  0  0
    2.1422    0.6281  -11.3141 C   0  0  0  0  0  0  0  0  0  0  0  0
    4.2228    0.3020   -7.0365 N   0  0  0  0  0  0  0  0  0  0  0  0
    3.3140    0.7628   -3.5416 C   0  0  0  0  0  0  0  0  0  0  0  0
    2.6373    0.8640   -2.3195 C   0  0  0  0  0  0  0  0  0  0  0  0
    2.0461   -0.1869    1.8743 H   0  0  0  0  0  0  0  0  0  0  0  0
    3.7476    0.1021    1.4803 H   0  0  0  0  0  0  0  0  0  0  0  0
    2.8998   -1.3832    0.8966 H   0  0  0  0  0  0  0  0  0  0  0  0
    4.7600   -0.9787   -0.4315 H   0  0  0  0  0  0  0  0  0  0  0  0
    5.9655   -1.0844   -2.4994 H   0  0  0  0  0  0  0  0  0  0  0  0
    4.4994   -1.9252   -5.9628 H   0  0  0  0  0  0  0  0  0  0  0  0
    4.8137   -3.6392   -6.0344 H   0  0  0  0  0  0  0  0  0  0  0  0
    3.7227   -2.8208   -7.1981 H   0  0  0  0  0  0  0  0  0  0  0  0
    5.0807   -4.2541   -8.7360 H   0  0  0  0  0  0  0  0  0  0  0  0
    6.7857   -4.0933  -10.4970 H   0  0  0  0  0  0  0  0  0  0  0  0
    8.5045   -2.3359  -10.4136 H   0  0  0  0  0  0  0  0  0  0  0  0
    9.6645   -0.6731   -9.2765 H   0  0  0  0  0  0  0  0  0  0  0  0
    9.5441   -0.7298   -7.5212 H   0  0  0  0  0  0  0  0  0  0  0  0
    8.6157    0.4875   -8.4506 H   0  0  0  0  0  0  0  0  0  0  0  0
    5.1959    2.7861   -4.9565 H   0  0  0  0  0  0  0  0  0  0  0  0
    4.1991    4.0790   -6.8623 H   0  0  0  0  0  0  0  0  0  0  0  0
    2.9730   -0.5170   -9.0023 H   0  0  0  0  0  0  0  0  0  0  0  0
    4.9901    2.1438  -10.2881 H   0  0  0  0  0  0  0  0  0  0  0  0
    4.7700    3.2161  -12.4367 H   0  0  0  0  0  0  0  0  0  0  0  0
    1.0660    2.6813  -15.3491 H   0  0  0  0  0  0  0  0  0  0  0  0
    2.0982    1.2370  -15.2971 H   0  0  0  0  0  0  0  0  0  0  0  0
    2.2891    2.3313  -17.4892 H   0  0  0  0  0  0  0  0  0  0  0  0
    3.8389    2.3039  -16.6344 H   0  0  0  0  0  0  0  0  0  0  0  0
    3.0017    4.2204  -18.8653 H   0  0  0  0  0  0  0  0  0  0  0  0
    4.6018    4.1938  -18.0900 H   0  0  0  0  0  0  0  0  0  0  0  0
    3.6263    5.6808  -18.1137 H   0  0  0  0  0  0  0  0  0  0  0  0
    3.7585    5.8360  -15.6572 H   0  0  0  0  0  0  0  0  0  0  0  0
    4.7101    4.3463  -15.6004 H   0  0  0  0  0  0  0  0  0  0  0  0
    2.0415    4.8680  -14.1713 H   0  0  0  0  0  0  0  0  0  0  0  0
    3.6365    4.7533  -13.4439 H   0  0  0  0  0  0  0  0  0  0  0  0
    1.1602    0.9986  -13.1798 H   0  0  0  0  0  0  0  0  0  0  0  0
    1.3758   -0.0743  -10.9993 H   0  0  0  0  0  0  0  0  0  0  0  0
    2.8046    1.1928   -4.4013 H   0  0  0  0  0  0  0  0  0  0  0  0
    1.7045    1.4219   -2.2655 H   0  0  0  0  0  0  0  0  0  0  0  0
  1  2  1  0  0  0  0
  1 41  1  0  0  0  0
  1 42  1  0  0  0  0
  1 43  1  0  0  0  0
  2  3  1  0  0  0  0
  3  4  1  0  0  0  0
  3 40  2  0  0  0  0
  4  5  2  0  0  0  0
  4 44  1  0  0  0  0
  5  6  1  0  0  0  0
  5 45  1  0  0  0  0
  6  7  1  0  0  0  0
  6 39  2  0  0  0  0
  7  8  1  0  0  0  0
  7 19  1  0  0  0  0
  8  9  2  0  0  0  0
  8 10  1  0  0  0  0
 10 11  1  0  0  0  0
 11 12  1  0  0  0  0
 11 17  2  0  0  0  0
 12 13  1  0  0  0  0
 12 14  2  0  0  0  0
 13 46  1  0  0  0  0
 13 47  1  0  0  0  0
 13 48  1  0  0  0  0
 14 15  1  0  0  0  0
 14 49  1  0  0  0  0
 15 16  2  0  0  0  0
 15 50  1  0  0  0  0
 16 17  1  0  0  0  0
 16 51  1  0  0  0  0
 17 18  1  0  0  0  0
 18 52  1  0  0  0  0
 18 53  1  0  0  0  0
 18 54  1  0  0  0  0
 19 20  1  0  0  0  0
 19 38  2  0  0  0  0
 20 21  2  0  0  0  0
 20 55  1  0  0  0  0
 21 22  1  0  0  0  0
 21 56  1  0  0  0  0
 22 23  2  0  0  0  0
 23 24  1  0  0  0  0
 23 38  1  0  0  0  0
 24 25  1  0  0  0  0
 24 57  1  0  0  0  0
 25 26  1  0  0  0  0
 25 37  2  0  0  0  0
 26 27  2  0  0  0  0
 26 58  1  0  0  0  0
 27 28  1  0  0  0  0
 27 59  1  0  0  0  0
 28 29  1  0  0  0  0
 28 36  2  0  0  0  0
 29 30  1  0  0  0  0
 29 35  1  0  0  0  0
 30 31  1  0  0  0  0
 30 60  1  0  0  0  0
 30 61  1  0  0  0  0
 31 32  1  0  0  0  0
 31 62  1  0  0  0  0
 31 63  1  0  0  0  0
 32 33  1  0  0  0  0
 32 34  1  0  0  0  0
 33 64  1  0  0  0  0
 33 65  1  0  0  0  0
 33 66  1  0  0  0  0
 34 35  1  0  0  0  0
 34 67  1  0  0  0  0
 34 68  1  0  0  0  0
 35 69  1  0  0  0  0
 35 70  1  0  0  0  0
 36 37  1  0  0  0  0
 36 71  1  0  0  0  0
 37 72  1  0  0  0  0
 39 40  1  0  0  0  0
 39 73  1  0  0  0  0
 40 74  1  0  0  0  0
M  END
$$$$
