CHEMBL1076468
 OpenBabel04072215353D

 77 81  0  0  0  0  0  0  0  0999 V2000
    5.8091    0.3462   -8.9969 C   0  0  0  0  0  0  0  0  0  0  0  0
    6.6520    0.0011   -7.7714 C   0  0  0  0  0  0  0  0  0  0  0  0
    6.2003    0.6310   -6.5196 N   0  0  0  0  0  0  0  0  0  0  0  0
    4.7869    0.3458   -6.1888 C   0  0  0  0  0  0  0  0  0  0  0  0
    4.4263   -1.1108   -5.8956 C   0  0  0  0  0  0  0  0  0  0  0  0
    7.0871    0.2695   -5.3787 C   0  0  0  0  0  0  0  0  0  0  0  0
    8.5639    0.7471   -5.4836 C   0  0  0  0  0  0  0  0  0  0  0  0
    8.6683    2.1891   -5.7480 N   0  0  0  0  0  0  0  0  0  0  0  0
    8.2813    3.0001   -4.6625 C   0  0  0  0  0  0  0  0  0  0  0  0
    7.9694    4.3196   -4.9283 C   0  0  0  0  0  0  0  0  0  0  0  0
    7.4588    5.0690   -3.8885 C   0  0  0  0  0  0  0  0  0  0  0  0
    6.9080    6.3701   -4.1235 N   0  0  0  0  0  0  0  0  0  0  0  0
    6.3184    6.8812   -5.2954 C   0  0  0  0  0  0  0  0  0  0  0  0
    6.1105    6.1362   -6.4271 N   0  0  0  0  0  0  0  0  0  0  0  0
    5.0329    6.3228   -7.3496 C   0  0  0  0  0  0  0  0  0  0  0  0
    3.7727    6.7758   -6.9239 C   0  0  0  0  0  0  0  0  0  0  0  0
    2.6531    6.7433   -7.7662 C   0  0  0  0  0  0  0  0  0  0  0  0
    1.3414    7.0894   -7.3551 N   0  0  0  0  0  0  0  0  0  0  0  0
    0.9586    7.4424   -6.0740 C   0  0  0  0  0  0  0  0  0  0  0  0
    1.6947    7.5805   -5.1033 O   0  0  0  0  0  0  0  0  0  0  0  0
   -0.4944    7.6653   -5.8320 C   0  0  0  0  0  0  0  0  0  0  0  0
   -1.5065    7.0082   -6.5393 C   0  0  0  0  0  0  0  0  0  0  0  0
   -2.8423    7.1844   -6.1620 C   0  0  0  0  0  0  0  0  0  0  0  0
   -3.1719    8.0129   -5.0841 C   0  0  0  0  0  0  0  0  0  0  0  0
   -2.1708    8.6868   -4.3731 C   0  0  0  0  0  0  0  0  0  0  0  0
   -2.4842    9.5867   -3.2038 C   0  0  0  0  0  0  0  0  0  0  0  0
   -3.8122    9.6445   -2.9035 F   0  0  0  0  0  0  0  0  0  0  0  0
   -1.8602    9.1959   -2.0590 F   0  0  0  0  0  0  0  0  0  0  0  0
   -2.0961   10.8735   -3.4231 F   0  0  0  0  0  0  0  0  0  0  0  0
   -0.8362    8.5037   -4.7587 C   0  0  0  0  0  0  0  0  0  0  0  0
    2.8140    6.2919   -9.0782 C   0  0  0  0  0  0  0  0  0  0  0  0
    4.0597    5.8486   -9.5270 C   0  0  0  0  0  0  0  0  0  0  0  0
    5.1705    5.8417   -8.6682 C   0  0  0  0  0  0  0  0  0  0  0  0
    6.4821    5.3079   -9.1760 C   0  0  0  0  0  0  0  0  0  0  0  0
    5.9689    8.1401   -5.1199 N   0  0  0  0  0  0  0  0  0  0  0  0
    6.2190    8.4399   -3.8075 C   0  0  0  0  0  0  0  0  0  0  0  0
    5.9715    9.6302   -3.1020 C   0  0  0  0  0  0  0  0  0  0  0  0
    6.3323    9.7158   -1.7521 C   0  0  0  0  0  0  0  0  0  0  0  0
    6.9367    8.6374   -1.1110 C   0  0  0  0  0  0  0  0  0  0  0  0
    7.1857    7.4400   -1.7949 C   0  0  0  0  0  0  0  0  0  0  0  0
    6.8004    7.3640   -3.1503 C   0  0  0  0  0  0  0  0  0  0  0  0
    7.4276    4.5901   -2.6258 N   0  0  0  0  0  0  0  0  0  0  0  0
    7.8437    3.3326   -2.4506 C   0  0  0  0  0  0  0  0  0  0  0  0
    8.2482    2.5045   -3.4167 N   0  0  0  0  0  0  0  0  0  0  0  0
    6.3939    0.1743   -9.9073 H   0  0  0  0  0  0  0  0  0  0  0  0
    5.5019    1.3972   -8.9971 H   0  0  0  0  0  0  0  0  0  0  0  0
    4.9142   -0.2816   -9.0550 H   0  0  0  0  0  0  0  0  0  0  0  0
    7.6627    0.3563   -7.9953 H   0  0  0  0  0  0  0  0  0  0  0  0
    6.7150   -1.0888   -7.6707 H   0  0  0  0  0  0  0  0  0  0  0  0
    4.1393    0.7119   -6.9941 H   0  0  0  0  0  0  0  0  0  0  0  0
    4.5021    0.9502   -5.3171 H   0  0  0  0  0  0  0  0  0  0  0  0
    4.7382   -1.7836   -6.6992 H   0  0  0  0  0  0  0  0  0  0  0  0
    3.3402   -1.2102   -5.7902 H   0  0  0  0  0  0  0  0  0  0  0  0
    4.8753   -1.4552   -4.9587 H   0  0  0  0  0  0  0  0  0  0  0  0
    7.0970   -0.8166   -5.2324 H   0  0  0  0  0  0  0  0  0  0  0  0
    6.6573    0.7029   -4.4670 H   0  0  0  0  0  0  0  0  0  0  0  0
    9.0551    0.2257   -6.3126 H   0  0  0  0  0  0  0  0  0  0  0  0
    9.1243    0.4579   -4.5864 H   0  0  0  0  0  0  0  0  0  0  0  0
    8.0784    2.4048   -6.5499 H   0  0  0  0  0  0  0  0  0  0  0  0
    8.1297    4.7168   -5.9203 H   0  0  0  0  0  0  0  0  0  0  0  0
    6.1766    5.1298   -6.3172 H   0  0  0  0  0  0  0  0  0  0  0  0
    3.6833    7.1271   -5.9022 H   0  0  0  0  0  0  0  0  0  0  0  0
    0.6307    7.0579   -8.0717 H   0  0  0  0  0  0  0  0  0  0  0  0
   -1.2811    6.3192   -7.3475 H   0  0  0  0  0  0  0  0  0  0  0  0
   -3.6313    6.6557   -6.6935 H   0  0  0  0  0  0  0  0  0  0  0  0
   -4.2162    8.1194   -4.7923 H   0  0  0  0  0  0  0  0  0  0  0  0
   -0.0444    9.0040   -4.1974 H   0  0  0  0  0  0  0  0  0  0  0  0
    1.9718    6.2518   -9.7636 H   0  0  0  0  0  0  0  0  0  0  0  0
    4.1526    5.4849  -10.5490 H   0  0  0  0  0  0  0  0  0  0  0  0
    6.4243    5.0385  -10.2362 H   0  0  0  0  0  0  0  0  0  0  0  0
    6.7671    4.4072   -8.6223 H   0  0  0  0  0  0  0  0  0  0  0  0
    7.2673    6.0644   -9.0742 H   0  0  0  0  0  0  0  0  0  0  0  0
    5.5038   10.4683   -3.6059 H   0  0  0  0  0  0  0  0  0  0  0  0
    6.1427   10.6312   -1.1985 H   0  0  0  0  0  0  0  0  0  0  0  0
    7.2199    8.7165   -0.0640 H   0  0  0  0  0  0  0  0  0  0  0  0
    7.6651    6.6142   -1.2869 H   0  0  0  0  0  0  0  0  0  0  0  0
    7.8360    2.9469   -1.4366 H   0  0  0  0  0  0  0  0  0  0  0  0
  1  2  1  0  0  0  0
  1 45  1  0  0  0  0
  1 46  1  0  0  0  0
  1 47  1  0  0  0  0
  2  3  1  0  0  0  0
  2 48  1  0  0  0  0
  2 49  1  0  0  0  0
  3  4  1  0  0  0  0
  3  6  1  0  0  0  0
  4  5  1  0  0  0  0
  4 50  1  0  0  0  0
  4 51  1  0  0  0  0
  5 52  1  0  0  0  0
  5 53  1  0  0  0  0
  5 54  1  0  0  0  0
  6  7  1  0  0  0  0
  6 55  1  0  0  0  0
  6 56  1  0  0  0  0
  7  8  1  0  0  0  0
  7 57  1  0  0  0  0
  7 58  1  0  0  0  0
  8  9  1  0  0  0  0
  8 59  1  0  0  0  0
  9 10  1  0  0  0  0
  9 44  2  0  0  0  0
 10 11  2  0  0  0  0
 10 60  1  0  0  0  0
 11 12  1  0  0  0  0
 11 42  1  0  0  0  0
 12 13  1  0  0  0  0
 12 41  1  0  0  0  0
 13 14  1  0  0  0  0
 13 35  2  0  0  0  0
 14 15  1  0  0  0  0
 14 61  1  0  0  0  0
 15 16  1  0  0  0  0
 15 33  2  0  0  0  0
 16 17  2  0  0  0  0
 16 62  1  0  0  0  0
 17 18  1  0  0  0  0
 17 31  1  0  0  0  0
 18 19  1  0  0  0  0
 18 63  1  0  0  0  0
 19 20  2  0  0  0  0
 19 21  1  0  0  0  0
 21 22  1  0  0  0  0
 21 30  2  0  0  0  0
 22 23  2  0  0  0  0
 22 64  1  0  0  0  0
 23 24  1  0  0  0  0
 23 65  1  0  0  0  0
 24 25  2  0  0  0  0
 24 66  1  0  0  0  0
 25 26  1  0  0  0  0
 25 30  1  0  0  0  0
 26 27  1  0  0  0  0
 26 28  1  0  0  0  0
 26 29  1  0  0  0  0
 30 67  1  0  0  0  0
 31 32  2  0  0  0  0
 31 68  1  0  0  0  0
 32 33  1  0  0  0  0
 32 69  1  0  0  0  0
 33 34  1  0  0  0  0
 34 70  1  0  0  0  0
 34 71  1  0  0  0  0
 34 72  1  0  0  0  0
 35 36  1  0  0  0  0
 36 37  1  0  0  0  0
 36 41  2  0  0  0  0
 37 38  2  0  0  0  0
 37 73  1  0  0  0  0
 38 39  1  0  0  0  0
 38 74  1  0  0  0  0
 39 40  2  0  0  0  0
 39 75  1  0  0  0  0
 40 41  1  0  0  0  0
 40 76  1  0  0  0  0
 42 43  2  0  0  0  0
 43 44  1  0  0  0  0
 43 77  1  0  0  0  0
M  END
$$$$
