CHEMBL4441017
 OpenBabel04072215383D

 38 41  0  0  0  0  0  0  0  0999 V2000
    1.1224   -0.8097   -0.3160 O   0  0  0  0  0  0  0  0  0  0  0  0
    2.2472   -0.4096   -0.0311 C   0  0  0  0  0  0  0  0  0  0  0  0
    2.8101   -0.3641    1.2322 N   0  0  0  0  0  0  0  0  0  0  0  0
    2.1888   -0.8286    2.4182 C   0  0  0  0  0  0  0  0  0  0  0  0
    1.0801   -1.6930    2.4007 C   0  0  0  0  0  0  0  0  0  0  0  0
    0.4367   -2.1112    3.5723 C   0  0  0  0  0  0  0  0  0  0  0  0
    0.9623   -1.6096    4.7493 C   0  0  0  0  0  0  0  0  0  0  0  0
    0.5062   -1.8306    6.0116 O   0  0  0  0  0  0  0  0  0  0  0  0
    1.3557   -1.1014    6.8045 C   0  0  0  0  0  0  0  0  0  0  0  0
    1.0948   -1.1451    8.2416 C   0  0  0  0  0  0  0  0  0  0  0  0
    0.0327   -1.8910    8.7800 C   0  0  0  0  0  0  0  0  0  0  0  0
   -0.1778   -1.9431   10.1619 C   0  0  0  0  0  0  0  0  0  0  0  0
    0.6693   -1.2435   11.0173 C   0  0  0  0  0  0  0  0  0  0  0  0
    0.4246   -1.3246   12.7176 Cl  0  0  0  0  0  0  0  0  0  0  0  0
    1.7172   -0.4839   10.5028 C   0  0  0  0  0  0  0  0  0  0  0  0
    1.9271   -0.4353    9.1209 C   0  0  0  0  0  0  0  0  0  0  0  0
    2.3082   -0.4620    6.1448 N   0  0  0  0  0  0  0  0  0  0  0  0
    2.0631   -0.7756    4.8300 C   0  0  0  0  0  0  0  0  0  0  0  0
    2.7135   -0.3878    3.6475 C   0  0  0  0  0  0  0  0  0  0  0  0
    3.0632    0.1400   -1.1418 C   0  0  0  0  0  0  0  0  0  0  0  0
    2.3916    0.8034   -2.1770 C   0  0  0  0  0  0  0  0  0  0  0  0
    3.0950    1.2731   -3.2857 C   0  0  0  0  0  0  0  0  0  0  0  0
    4.4743    1.0719   -3.3738 C   0  0  0  0  0  0  0  0  0  0  0  0
    5.2730    1.6570   -4.7888 Cl  0  0  0  0  0  0  0  0  0  0  0  0
    5.1479    0.4037   -2.3412 C   0  0  0  0  0  0  0  0  0  0  0  0
    7.0161    0.0607   -2.3984 Br  0  0  0  0  0  0  0  0  0  0  0  0
    4.4446   -0.0619   -1.2212 C   0  0  0  0  0  0  0  0  0  0  0  0
    3.6575    0.1780    1.3520 H   0  0  0  0  0  0  0  0  0  0  0  0
    0.6829   -2.0777    1.4646 H   0  0  0  0  0  0  0  0  0  0  0  0
   -0.4227   -2.7686    3.5551 H   0  0  0  0  0  0  0  0  0  0  0  0
   -0.6399   -2.4462    8.1284 H   0  0  0  0  0  0  0  0  0  0  0  0
   -0.9986   -2.5344   10.5598 H   0  0  0  0  0  0  0  0  0  0  0  0
    2.3774    0.0671   11.1672 H   0  0  0  0  0  0  0  0  0  0  0  0
    2.7527    0.1575    8.7291 H   0  0  0  0  0  0  0  0  0  0  0  0
    3.5707    0.2724    3.7090 H   0  0  0  0  0  0  0  0  0  0  0  0
    1.3116    0.9411   -2.1280 H   0  0  0  0  0  0  0  0  0  0  0  0
    2.5557    1.7789   -4.0836 H   0  0  0  0  0  0  0  0  0  0  0  0
    4.9659   -0.6175   -0.4464 H   0  0  0  0  0  0  0  0  0  0  0  0
  1  2  2  0  0  0  0
  2  3  1  0  0  0  0
  2 20  1  0  0  0  0
  3  4  1  0  0  0  0
  3 28  1  0  0  0  0
  4  5  1  0  0  0  0
  4 19  2  0  0  0  0
  5  6  2  0  0  0  0
  5 29  1  0  0  0  0
  6  7  1  0  0  0  0
  6 30  1  0  0  0  0
  7  8  1  0  0  0  0
  7 18  2  0  0  0  0
  8  9  1  0  0  0  0
  9 10  1  0  0  0  0
  9 17  2  0  0  0  0
 10 11  1  0  0  0  0
 10 16  2  0  0  0  0
 11 12  2  0  0  0  0
 11 31  1  0  0  0  0
 12 13  1  0  0  0  0
 12 32  1  0  0  0  0
 13 14  1  0  0  0  0
 13 15  2  0  0  0  0
 15 16  1  0  0  0  0
 15 33  1  0  0  0  0
 16 34  1  0  0  0  0
 17 18  1  0  0  0  0
 18 19  1  0  0  0  0
 19 35  1  0  0  0  0
 20 21  1  0  0  0  0
 20 27  2  0  0  0  0
 21 22  2  0  0  0  0
 21 36  1  0  0  0  0
 22 23  1  0  0  0  0
 22 37  1  0  0  0  0
 23 24  1  0  0  0  0
 23 25  2  0  0  0  0
 25 26  1  0  0  0  0
 25 27  1  0  0  0  0
 27 38  1  0  0  0  0
M  END
$$$$
