CHEMBL1973516
 OpenBabel04072215363D

 58 62  0  0  0  0  0  0  0  0999 V2000
    1.8737   -0.4888    1.1818 C   0  0  0  0  0  0  0  0  0  0  0  0
    2.4079   -0.0719   -0.1834 C   0  0  0  0  0  0  0  0  0  0  0  0
    3.5029    0.9098   -0.1402 N   0  0  0  0  0  0  0  0  0  0  0  0
    3.1031    2.2505    0.3528 C   0  0  0  0  0  0  0  0  0  0  0  0
    2.2455    3.1222   -0.6000 C   0  0  0  0  0  0  0  0  0  0  0  0
    2.7239    3.1036   -1.9931 N   0  0  0  0  0  0  0  0  0  0  0  0
    3.2264    4.2305   -2.6228 C   0  0  0  0  0  0  0  0  0  0  0  0
    3.9359    5.2288   -1.9516 C   0  0  0  0  0  0  0  0  0  0  0  0
    4.4234    6.3582   -2.6266 C   0  0  0  0  0  0  0  0  0  0  0  0
    4.2049    6.5315   -3.9965 C   0  0  0  0  0  0  0  0  0  0  0  0
    4.6063    7.6897   -4.6786 N   0  0  0  0  0  0  0  0  0  0  0  0
    5.7761    8.4227   -4.4759 C   0  0  0  0  0  0  0  0  0  0  0  0
    5.7657    9.7155   -4.8047 N   0  0  0  0  0  0  0  0  0  0  0  0
    6.9500   10.3572   -4.7371 C   0  0  0  0  0  0  0  0  0  0  0  0
    8.1389    9.7545   -4.3856 C   0  0  0  0  0  0  0  0  0  0  0  0
    9.3504   10.4932   -4.3946 C   0  0  0  0  0  0  0  0  0  0  0  0
   10.3388   11.1046   -4.3740 N   0  0  0  0  0  0  0  0  0  0  0  0
    8.0686    8.4166   -4.0486 C   0  0  0  0  0  0  0  0  0  0  0  0
    9.2436    7.6638   -3.7904 N   0  0  0  0  0  0  0  0  0  0  0  0
    9.3691    6.2592   -3.6248 C   0  0  0  0  0  0  0  0  0  0  0  0
    8.3999    5.3496   -4.0769 C   0  0  0  0  0  0  0  0  0  0  0  0
    8.5011    3.9677   -3.8825 C   0  0  0  0  0  0  0  0  0  0  0  0
    9.6686    3.5060   -3.2846 C   0  0  0  0  0  0  0  0  0  0  0  0
   10.0681    2.2481   -2.9258 N   0  0  0  0  0  0  0  0  0  0  0  0
   11.3352    2.1853   -2.4795 N   0  0  0  0  0  0  0  0  0  0  0  0
   11.7270    3.4633   -2.4876 C   0  0  0  0  0  0  0  0  0  0  0  0
   10.7142    4.3456   -2.9276 C   0  0  0  0  0  0  0  0  0  0  0  0
   10.5634    5.7398   -3.0834 C   0  0  0  0  0  0  0  0  0  0  0  0
    6.8806    7.7872   -4.0640 N   0  0  0  0  0  0  0  0  0  0  0  0
    3.4813    5.5514   -4.6734 C   0  0  0  0  0  0  0  0  0  0  0  0
    3.0208    4.4121   -3.9999 C   0  0  0  0  0  0  0  0  0  0  0  0
    3.1483    1.7936   -2.5077 C   0  0  0  0  0  0  0  0  0  0  0  0
    4.0833    1.0883   -1.4973 C   0  0  0  0  0  0  0  0  0  0  0  0
    1.1276   -1.2815    1.0516 H   0  0  0  0  0  0  0  0  0  0  0  0
    1.3817    0.3375    1.7017 H   0  0  0  0  0  0  0  0  0  0  0  0
    2.6697   -0.8856    1.8197 H   0  0  0  0  0  0  0  0  0  0  0  0
    1.5689    0.2715   -0.7968 H   0  0  0  0  0  0  0  0  0  0  0  0
    2.7908   -0.9876   -0.6535 H   0  0  0  0  0  0  0  0  0  0  0  0
    4.0289    2.8013    0.5672 H   0  0  0  0  0  0  0  0  0  0  0  0
    2.5979    2.1716    1.3210 H   0  0  0  0  0  0  0  0  0  0  0  0
    2.1852    4.1423   -0.2006 H   0  0  0  0  0  0  0  0  0  0  0  0
    1.2169    2.7420   -0.5980 H   0  0  0  0  0  0  0  0  0  0  0  0
    4.1523    5.1357   -0.8917 H   0  0  0  0  0  0  0  0  0  0  0  0
    4.9765    7.1038   -2.0616 H   0  0  0  0  0  0  0  0  0  0  0  0
    3.8499    8.3279   -4.8963 H   0  0  0  0  0  0  0  0  0  0  0  0
    6.9079   11.4098   -5.0094 H   0  0  0  0  0  0  0  0  0  0  0  0
    9.9191    8.1711   -3.2284 H   0  0  0  0  0  0  0  0  0  0  0  0
    7.5103    5.6937   -4.5956 H   0  0  0  0  0  0  0  0  0  0  0  0
    7.7064    3.3038   -4.2057 H   0  0  0  0  0  0  0  0  0  0  0  0
    9.5241    1.3937   -2.9647 H   0  0  0  0  0  0  0  0  0  0  0  0
   12.7353    3.6999   -2.1759 H   0  0  0  0  0  0  0  0  0  0  0  0
   11.3698    6.3973   -2.7753 H   0  0  0  0  0  0  0  0  0  0  0  0
    3.2891    5.6509   -5.7384 H   0  0  0  0  0  0  0  0  0  0  0  0
    2.4606    3.6682   -4.5623 H   0  0  0  0  0  0  0  0  0  0  0  0
    3.6727    1.8677   -3.4679 H   0  0  0  0  0  0  0  0  0  0  0  0
    2.2548    1.1867   -2.6938 H   0  0  0  0  0  0  0  0  0  0  0  0
    5.0046    1.6781   -1.3962 H   0  0  0  0  0  0  0  0  0  0  0  0
    4.3951    0.1179   -1.8983 H   0  0  0  0  0  0  0  0  0  0  0  0
  1  2  1  0  0  0  0
  1 34  1  0  0  0  0
  1 35  1  0  0  0  0
  1 36  1  0  0  0  0
  2  3  1  0  0  0  0
  2 37  1  0  0  0  0
  2 38  1  0  0  0  0
  3  4  1  0  0  0  0
  3 33  1  0  0  0  0
  4  5  1  0  0  0  0
  4 39  1  0  0  0  0
  4 40  1  0  0  0  0
  5  6  1  0  0  0  0
  5 41  1  0  0  0  0
  5 42  1  0  0  0  0
  6  7  1  0  0  0  0
  6 32  1  0  0  0  0
  7  8  1  0  0  0  0
  7 31  2  0  0  0  0
  8  9  2  0  0  0  0
  8 43  1  0  0  0  0
  9 10  1  0  0  0  0
  9 44  1  0  0  0  0
 10 11  1  0  0  0  0
 10 30  2  0  0  0  0
 11 12  1  0  0  0  0
 11 45  1  0  0  0  0
 12 13  1  0  0  0  0
 12 29  2  0  0  0  0
 13 14  2  0  0  0  0
 14 15  1  0  0  0  0
 14 46  1  0  0  0  0
 15 16  1  0  0  0  0
 15 18  2  0  0  0  0
 16 17  3  0  0  0  0
 18 19  1  0  0  0  0
 18 29  1  0  0  0  0
 19 20  1  0  0  0  0
 19 47  1  0  0  0  0
 20 21  1  0  0  0  0
 20 28  2  0  0  0  0
 21 22  2  0  0  0  0
 21 48  1  0  0  0  0
 22 23  1  0  0  0  0
 22 49  1  0  0  0  0
 23 24  1  0  0  0  0
 23 27  2  0  0  0  0
 24 25  1  0  0  0  0
 24 50  1  0  0  0  0
 25 26  2  0  0  0  0
 26 27  1  0  0  0  0
 26 51  1  0  0  0  0
 27 28  1  0  0  0  0
 28 52  1  0  0  0  0
 30 31  1  0  0  0  0
 30 53  1  0  0  0  0
 31 54  1  0  0  0  0
 32 33  1  0  0  0  0
 32 55  1  0  0  0  0
 32 56  1  0  0  0  0
 33 57  1  0  0  0  0
 33 58  1  0  0  0  0
M  END
$$$$
