CHEMBL3928261
 OpenBabel04072215373D

 70 73  0  0  0  0  0  0  0  0999 V2000
    2.0179   -4.2079   -4.4745 C   0  0  0  0  0  0  0  0  0  0  0  0
    1.9486   -2.9501   -3.9312 O   0  0  0  0  0  0  0  0  0  0  0  0
    2.9071   -2.3188   -3.2119 C   0  0  0  0  0  0  0  0  0  0  0  0
    2.5596   -1.0758   -2.6972 C   0  0  0  0  0  0  0  0  0  0  0  0
    3.4551   -0.3409   -1.9188 C   0  0  0  0  0  0  0  0  0  0  0  0
    3.1143    0.8628   -1.3789 O   0  0  0  0  0  0  0  0  0  0  0  0
    1.8804    1.4813   -1.5022 C   0  0  0  0  0  0  0  0  0  0  0  0
    4.7222   -0.8840   -1.6582 C   0  0  0  0  0  0  0  0  0  0  0  0
    5.1071   -2.1619   -2.1415 C   0  0  0  0  0  0  0  0  0  0  0  0
    6.3428   -2.7998   -1.6947 N   0  0  0  0  0  0  0  0  0  0  0  0
    6.6058   -2.9842   -0.2328 C   0  0  0  0  0  0  0  0  0  0  0  0
    6.2861   -1.9382    0.8276 C   0  0  0  0  0  0  0  0  0  0  0  0
    4.8724   -1.9312    1.4307 C   0  0  0  0  0  0  0  0  0  0  0  0
    4.6514   -0.8355    2.4146 N   0  0  0  0  0  0  0  0  0  0  0  0
    4.8255    0.5441    1.9246 C   0  0  0  0  0  0  0  0  0  0  0  0
    6.2727    1.0646    2.1194 C   0  0  0  0  0  0  0  0  0  0  0  0
    6.6866    0.9375    3.4662 O   0  0  0  0  0  0  0  0  0  0  0  0
    6.6442   -0.4207    3.8700 C   0  0  0  0  0  0  0  0  0  0  0  0
    5.2127   -0.9808    3.7717 C   0  0  0  0  0  0  0  0  0  0  0  0
    7.3503   -3.4941   -2.5235 C   0  0  0  0  0  0  0  0  0  0  0  0
    7.9268   -4.6427   -1.9362 C   0  0  0  0  0  0  0  0  0  0  0  0
    9.1262   -5.1456   -2.3222 C   0  0  0  0  0  0  0  0  0  0  0  0
    9.8095   -4.5900   -3.3524 C   0  0  0  0  0  0  0  0  0  0  0  0
   11.0758   -5.0246   -3.5258 N   0  0  0  0  0  0  0  0  0  0  0  0
   11.8447   -4.5651   -4.5073 C   0  0  0  0  0  0  0  0  0  0  0  0
   11.3086   -3.7090   -5.4521 C   0  0  0  0  0  0  0  0  0  0  0  0
   12.2081   -3.6064   -6.6454 C   0  0  0  0  0  0  0  0  0  0  0  0
   11.9971   -4.1425   -7.9077 C   0  0  0  0  0  0  0  0  0  0  0  0
   13.1441   -4.0740   -8.6224 N   0  0  0  0  0  0  0  0  0  0  0  0
   14.0749   -3.5276   -7.8538 N   0  0  0  0  0  0  0  0  0  0  0  0
   15.4597   -3.2961   -8.2687 C   0  0  0  0  0  0  0  0  0  0  0  0
   13.5569   -3.2523   -6.6407 C   0  0  0  0  0  0  0  0  0  0  0  0
   10.0144   -3.2011   -5.2810 N   0  0  0  0  0  0  0  0  0  0  0  0
    9.2609   -3.5898   -4.1664 C   0  0  0  0  0  0  0  0  0  0  0  0
    7.9798   -2.9971   -3.7448 C   0  0  0  0  0  0  0  0  0  0  0  0
    4.1882   -2.8669   -2.9428 C   0  0  0  0  0  0  0  0  0  0  0  0
   -0.6747   -0.6556    1.7919 Cl  0  0  0  0  0  0  0  0  0  0  0  0
    1.0630   -4.4075   -5.0028 H   0  0  0  0  0  0  0  0  0  0  0  0
    2.1435   -4.9622   -3.6701 H   0  0  0  0  0  0  0  0  0  0  0  0
    2.8501   -4.2585   -5.2050 H   0  0  0  0  0  0  0  0  0  0  0  0
    1.5650   -0.6929   -2.8968 H   0  0  0  0  0  0  0  0  0  0  0  0
    1.8752    2.4304   -0.9280 H   0  0  0  0  0  0  0  0  0  0  0  0
    1.0718    0.8310   -1.0966 H   0  0  0  0  0  0  0  0  0  0  0  0
    1.6750    1.7121   -2.5686 H   0  0  0  0  0  0  0  0  0  0  0  0
    5.3761   -0.2881   -1.0546 H   0  0  0  0  0  0  0  0  0  0  0  0
    7.7242   -2.9479   -0.1444 H   0  0  0  0  0  0  0  0  0  0  0  0
    6.2795   -3.9772    0.1364 H   0  0  0  0  0  0  0  0  0  0  0  0
    6.6139   -0.9989    0.4062 H   0  0  0  0  0  0  0  0  0  0  0  0
    6.9406   -2.1918    1.6818 H   0  0  0  0  0  0  0  0  0  0  0  0
    4.6811   -2.9135    1.9243 H   0  0  0  0  0  0  0  0  0  0  0  0
    4.1083   -1.8473    0.6384 H   0  0  0  0  0  0  0  0  0  0  0  0
    4.1712    1.1977    2.5396 H   0  0  0  0  0  0  0  0  0  0  0  0
    4.4782    0.6449    0.8784 H   0  0  0  0  0  0  0  0  0  0  0  0
    6.2711    2.1389    1.8478 H   0  0  0  0  0  0  0  0  0  0  0  0
    7.0465    0.6424    1.4580 H   0  0  0  0  0  0  0  0  0  0  0  0
    6.9520   -0.4694    4.9349 H   0  0  0  0  0  0  0  0  0  0  0  0
    7.3990   -1.0241    3.3334 H   0  0  0  0  0  0  0  0  0  0  0  0
    4.5910   -0.3614    4.4582 H   0  0  0  0  0  0  0  0  0  0  0  0
    5.1457   -2.0277    4.1350 H   0  0  0  0  0  0  0  0  0  0  0  0
    7.5132   -5.1288   -1.0706 H   0  0  0  0  0  0  0  0  0  0  0  0
    9.5642   -5.9540   -1.7462 H   0  0  0  0  0  0  0  0  0  0  0  0
   12.8491   -4.9645   -4.5954 H   0  0  0  0  0  0  0  0  0  0  0  0
   11.1041   -4.6424   -8.2578 H   0  0  0  0  0  0  0  0  0  0  0  0
   15.6228   -3.6405   -9.3133 H   0  0  0  0  0  0  0  0  0  0  0  0
   16.1707   -3.8383   -7.6058 H   0  0  0  0  0  0  0  0  0  0  0  0
   15.6813   -2.2101   -8.2168 H   0  0  0  0  0  0  0  0  0  0  0  0
   14.1232   -2.8519   -5.8099 H   0  0  0  0  0  0  0  0  0  0  0  0
    7.5810   -2.1344   -4.2634 H   0  0  0  0  0  0  0  0  0  0  0  0
    4.4409   -3.8581   -3.2993 H   0  0  0  0  0  0  0  0  0  0  0  0
    0.6784   -0.4231    1.8747 H   0  0  0  0  0  0  0  0  0  0  0  0
  1  2  1  0  0  0  0
  1 38  1  0  0  0  0
  1 39  1  0  0  0  0
  1 40  1  0  0  0  0
  2  3  1  0  0  0  0
  3  4  1  0  0  0  0
  3 36  2  0  0  0  0
  4  5  2  0  0  0  0
  4 41  1  0  0  0  0
  5  6  1  0  0  0  0
  5  8  1  0  0  0  0
  6  7  1  0  0  0  0
  7 42  1  0  0  0  0
  7 43  1  0  0  0  0
  7 44  1  0  0  0  0
  8  9  2  0  0  0  0
  8 45  1  0  0  0  0
  9 10  1  0  0  0  0
  9 36  1  0  0  0  0
 10 11  1  0  0  0  0
 10 20  1  0  0  0  0
 11 12  1  0  0  0  0
 11 46  1  0  0  0  0
 11 47  1  0  0  0  0
 12 13  1  0  0  0  0
 12 48  1  0  0  0  0
 12 49  1  0  0  0  0
 13 14  1  0  0  0  0
 13 50  1  0  0  0  0
 13 51  1  0  0  0  0
 14 15  1  0  0  0  0
 14 19  1  0  0  0  0
 15 16  1  0  0  0  0
 15 52  1  0  0  0  0
 15 53  1  0  0  0  0
 16 17  1  0  0  0  0
 16 54  1  0  0  0  0
 16 55  1  0  0  0  0
 17 18  1  0  0  0  0
 18 19  1  0  0  0  0
 18 56  1  0  0  0  0
 18 57  1  0  0  0  0
 19 58  1  0  0  0  0
 19 59  1  0  0  0  0
 20 21  1  0  0  0  0
 20 35  2  0  0  0  0
 21 22  2  0  0  0  0
 21 60  1  0  0  0  0
 22 23  1  0  0  0  0
 22 61  1  0  0  0  0
 23 24  1  0  0  0  0
 23 34  2  0  0  0  0
 24 25  2  0  0  0  0
 25 26  1  0  0  0  0
 25 62  1  0  0  0  0
 26 27  1  0  0  0  0
 26 33  2  0  0  0  0
 27 28  1  0  0  0  0
 27 32  2  0  0  0  0
 28 29  2  0  0  0  0
 28 63  1  0  0  0  0
 29 30  1  0  0  0  0
 30 31  1  0  0  0  0
 30 32  1  0  0  0  0
 31 64  1  0  0  0  0
 31 65  1  0  0  0  0
 31 66  1  0  0  0  0
 32 67  1  0  0  0  0
 33 34  1  0  0  0  0
 34 35  1  0  0  0  0
 35 68  1  0  0  0  0
 36 69  1  0  0  0  0
 37 70  1  0  0  0  0
M  END
$$$$
