CHEMBL3321901
 OpenBabel04072215363D

 41 45  0  0  0  0  0  0  0  0999 V2000
    2.1919    0.1419   -0.0298 F   0  0  0  0  0  0  0  0  0  0  0  0
    0.8532    0.1136   -0.0374 C   0  0  0  0  0  0  0  0  0  0  0  0
    0.1750    0.1885   -1.2482 C   0  0  0  0  0  0  0  0  0  0  0  0
   -1.2218    0.1603   -1.2615 C   0  0  0  0  0  0  0  0  0  0  0  0
   -1.9410    0.0567   -0.0609 C   0  0  0  0  0  0  0  0  0  0  0  0
   -3.4029    0.0194   -0.0376 C   0  0  0  0  0  0  0  0  0  0  0  0
   -4.1447   -0.5652    0.8834 N   0  0  0  0  0  0  0  0  0  0  0  0
   -5.4471   -0.3487    0.5158 C   0  0  0  0  0  0  0  0  0  0  0  0
   -6.6269   -0.7595    1.1372 C   0  0  0  0  0  0  0  0  0  0  0  0
   -7.8449   -0.3817    0.5589 C   0  0  0  0  0  0  0  0  0  0  0  0
   -7.9150    0.3693   -0.6300 C   0  0  0  0  0  0  0  0  0  0  0  0
   -9.1632    0.7974   -1.1424 N   0  0  0  0  0  0  0  0  0  0  0  0
  -10.3940    0.1127   -0.9770 C   0  0  0  0  0  0  0  0  0  0  0  0
  -10.3595   -1.2311   -0.8914 N   0  0  0  0  0  0  0  0  0  0  0  0
  -11.5172   -1.8517   -0.6645 C   0  0  0  0  0  0  0  0  0  0  0  0
  -12.7056   -1.2635   -0.5074 N   0  0  0  0  0  0  0  0  0  0  0  0
  -12.7324    0.0684   -0.6084 C   0  0  0  0  0  0  0  0  0  0  0  0
  -13.9446    0.7158   -0.4095 C   0  0  0  0  0  0  0  0  0  0  0  0
  -14.0633    2.1050   -0.4945 C   0  0  0  0  0  0  0  0  0  0  0  0
  -12.9476    2.8746   -0.7938 C   0  0  0  0  0  0  0  0  0  0  0  0
  -11.7150    2.2503   -0.9826 C   0  0  0  0  0  0  0  0  0  0  0  0
  -11.5938    0.8394   -0.8816 C   0  0  0  0  0  0  0  0  0  0  0  0
   -6.7247    0.8057   -1.2373 C   0  0  0  0  0  0  0  0  0  0  0  0
   -5.5181    0.4109   -0.6439 C   0  0  0  0  0  0  0  0  0  0  0  0
   -4.2062    0.6326   -0.9736 N   0  0  0  0  0  0  0  0  0  0  0  0
   -1.2326   -0.0306    1.1487 C   0  0  0  0  0  0  0  0  0  0  0  0
    0.1631    0.0035    1.1621 C   0  0  0  0  0  0  0  0  0  0  0  0
    0.7375    0.2583   -2.1738 H   0  0  0  0  0  0  0  0  0  0  0  0
   -1.7326    0.1916   -2.2203 H   0  0  0  0  0  0  0  0  0  0  0  0
   -6.5970   -1.3476    2.0468 H   0  0  0  0  0  0  0  0  0  0  0  0
   -8.7578   -0.6856    1.0656 H   0  0  0  0  0  0  0  0  0  0  0  0
   -9.1121    1.1992   -2.0712 H   0  0  0  0  0  0  0  0  0  0  0  0
  -11.4860   -2.9326   -0.5933 H   0  0  0  0  0  0  0  0  0  0  0  0
  -14.8218    0.1201   -0.1663 H   0  0  0  0  0  0  0  0  0  0  0  0
  -15.0271    2.5763   -0.3196 H   0  0  0  0  0  0  0  0  0  0  0  0
  -13.0327    3.9564   -0.8629 H   0  0  0  0  0  0  0  0  0  0  0  0
  -10.8417    2.8652   -1.1874 H   0  0  0  0  0  0  0  0  0  0  0  0
   -6.7330    1.4165   -2.1323 H   0  0  0  0  0  0  0  0  0  0  0  0
   -3.8787    1.1750   -1.7575 H   0  0  0  0  0  0  0  0  0  0  0  0
   -1.7751   -0.1250    2.0890 H   0  0  0  0  0  0  0  0  0  0  0  0
    0.7093   -0.0597    2.0977 H   0  0  0  0  0  0  0  0  0  0  0  0
  1  2  1  0  0  0  0
  2  3  1  0  0  0  0
  2 27  2  0  0  0  0
  3  4  2  0  0  0  0
  3 28  1  0  0  0  0
  4  5  1  0  0  0  0
  4 29  1  0  0  0  0
  5  6  1  0  0  0  0
  5 26  2  0  0  0  0
  6  7  2  0  0  0  0
  6 25  1  0  0  0  0
  7  8  1  0  0  0  0
  8  9  1  0  0  0  0
  8 24  2  0  0  0  0
  9 10  2  0  0  0  0
  9 30  1  0  0  0  0
 10 11  1  0  0  0  0
 10 31  1  0  0  0  0
 11 12  1  0  0  0  0
 11 23  2  0  0  0  0
 12 13  1  0  0  0  0
 12 32  1  0  0  0  0
 13 14  1  0  0  0  0
 13 22  2  0  0  0  0
 14 15  2  0  0  0  0
 15 16  1  0  0  0  0
 15 33  1  0  0  0  0
 16 17  2  0  0  0  0
 17 18  1  0  0  0  0
 17 22  1  0  0  0  0
 18 19  2  0  0  0  0
 18 34  1  0  0  0  0
 19 20  1  0  0  0  0
 19 35  1  0  0  0  0
 20 21  2  0  0  0  0
 20 36  1  0  0  0  0
 21 22  1  0  0  0  0
 21 37  1  0  0  0  0
 23 24  1  0  0  0  0
 23 38  1  0  0  0  0
 24 25  1  0  0  0  0
 25 39  1  0  0  0  0
 26 27  1  0  0  0  0
 26 40  1  0  0  0  0
 27 41  1  0  0  0  0
M  END
$$$$
