CHEMBL460468
 OpenBabel04072215383D

 67 71  0  0  1  0  0  0  0  0999 V2000
  -11.3851    8.1357    3.9724 C   0  0  0  0  0  0  0  0  0  0  0  0
  -10.8726    9.4626    3.8852 O   0  0  0  0  0  0  0  0  0  0  0  0
   -9.7450    9.7222    4.6157 C   0  0  0  0  0  0  0  0  0  0  0  0
   -9.1091    8.8151    5.4496 C   0  0  0  0  0  0  0  0  0  0  0  0
   -7.9566    9.1926    6.1306 C   0  0  0  0  0  0  0  0  0  0  0  0
   -7.3561   10.4539    5.9218 C   0  0  0  0  0  0  0  0  0  0  0  0
   -6.0912   10.8330    6.4352 C   0  0  0  0  0  0  0  0  0  0  0  0
   -5.2497   10.0073    7.1651 O   0  0  0  0  0  0  0  0  0  0  0  0
   -4.9217    8.7537    6.6860 C   0  0  0  0  0  0  0  0  0  0  0  0
   -5.0709    8.3465    5.3649 C   0  0  0  0  0  0  0  0  0  0  0  0
   -4.8682    7.0084    5.0093 C   0  0  0  0  0  0  0  0  0  0  0  0
   -4.4311    6.0528    5.9356 C   0  0  0  0  0  0  0  0  0  0  0  0
   -4.2065    4.6888    5.5946 N   0  0  0  0  0  0  0  0  0  0  0  0
   -4.5228    4.1105    4.3776 C   0  0  0  0  0  0  0  0  0  0  0  0
   -5.1948    4.6583    3.5076 O   0  0  0  0  0  0  0  0  0  0  0  0
   -4.0142    2.7408    4.1340 C   0  0  0  0  0  0  0  0  0  0  0  0
   -3.8329    2.1385    2.9348 C   0  0  0  0  0  0  0  0  0  0  0  0
   -4.1228    2.7788    1.6131 C   0  0  0  0  0  0  0  0  0  0  0  0
   -3.2887    0.8481    3.0603 N   0  0  0  0  0  0  0  0  0  0  0  0
   -3.3374   -0.3225    2.1443 C   0  0  0  0  0  0  0  0  0  0  0  0
   -4.2310   -0.2433    0.8850 C   0  0  2  0  0  0  0  0  0  0  0  0
   -4.3279   -1.5906    0.1726 C   0  0  0  0  0  0  0  0  0  0  0  0
   -3.7232    0.6428   -0.1165 O   0  0  0  0  0  0  0  0  0  0  0  0
   -3.2677    0.5741    4.4580 N   0  0  0  0  0  0  0  0  0  0  0  0
   -2.5292   -0.4730    5.0493 C   0  0  0  0  0  0  0  0  0  0  0  0
   -3.0949   -1.1565    6.1338 C   0  0  0  0  0  0  0  0  0  0  0  0
   -2.4253   -2.2276    6.7303 C   0  0  0  0  0  0  0  0  0  0  0  0
   -1.1619   -2.5986    6.2756 C   0  0  0  0  0  0  0  0  0  0  0  0
   -0.5781   -1.9070    5.2125 C   0  0  0  0  0  0  0  0  0  0  0  0
   -1.2662   -0.8593    4.5871 C   0  0  0  0  0  0  0  0  0  0  0  0
   -3.6132    1.7445    5.1508 C   0  0  0  0  0  0  0  0  0  0  0  0
   -3.5686    1.9913    6.3477 O   0  0  0  0  0  0  0  0  0  0  0  0
   -4.1819    6.4844    7.2434 C   0  0  0  0  0  0  0  0  0  0  0  0
   -4.4378    7.8186    7.6057 C   0  0  0  0  0  0  0  0  0  0  0  0
   -4.2398    8.1798    8.8873 F   0  0  0  0  0  0  0  0  0  0  0  0
   -5.6292   12.1320    6.2460 C   0  0  0  0  0  0  0  0  0  0  0  0
   -6.4023   12.9941    5.4953 C   0  0  0  0  0  0  0  0  0  0  0  0
   -7.5735   12.6422    4.9195 N   0  0  0  0  0  0  0  0  0  0  0  0
   -8.0340   11.3950    5.1176 C   0  0  0  0  0  0  0  0  0  0  0  0
   -9.2125   11.0131    4.4906 C   0  0  0  0  0  0  0  0  0  0  0  0
  -12.2916    8.0799    3.3641 H   0  0  0  0  0  0  0  0  0  0  0  0
  -11.6622    7.8878    5.0028 H   0  0  0  0  0  0  0  0  0  0  0  0
  -10.6677    7.4095    3.5731 H   0  0  0  0  0  0  0  0  0  0  0  0
   -9.4618    7.7986    5.5864 H   0  0  0  0  0  0  0  0  0  0  0  0
   -7.5030    8.4646    6.7974 H   0  0  0  0  0  0  0  0  0  0  0  0
   -5.4075    9.0294    4.5898 H   0  0  0  0  0  0  0  0  0  0  0  0
   -5.0813    6.7550    3.9777 H   0  0  0  0  0  0  0  0  0  0  0  0
   -3.7982    4.0841    6.3099 H   0  0  0  0  0  0  0  0  0  0  0  0
   -4.2795    3.8564    1.6572 H   0  0  0  0  0  0  0  0  0  0  0  0
   -5.0332    2.3563    1.1777 H   0  0  0  0  0  0  0  0  0  0  0  0
   -3.2735    2.6635    0.9377 H   0  0  0  0  0  0  0  0  0  0  0  0
   -3.6721   -1.1996    2.7129 H   0  0  0  0  0  0  0  0  0  0  0  0
   -2.3071   -0.5181    1.8238 H   0  0  0  0  0  0  0  0  0  0  0  0
   -5.2410    0.0790    1.1595 H   0  0  0  0  0  0  0  0  0  0  0  0
   -3.3580   -1.8756   -0.2521 H   0  0  0  0  0  0  0  0  0  0  0  0
   -5.0188   -1.5120   -0.6761 H   0  0  0  0  0  0  0  0  0  0  0  0
   -4.6788   -2.3878    0.8320 H   0  0  0  0  0  0  0  0  0  0  0  0
   -2.7595    0.7150   -0.0112 H   0  0  0  0  0  0  0  0  0  0  0  0
   -4.0823   -0.8817    6.4980 H   0  0  0  0  0  0  0  0  0  0  0  0
   -2.8907   -2.7691    7.5501 H   0  0  0  0  0  0  0  0  0  0  0  0
   -0.6308   -3.4170    6.7532 H   0  0  0  0  0  0  0  0  0  0  0  0
    0.4212   -2.1794    4.8807 H   0  0  0  0  0  0  0  0  0  0  0  0
   -0.7825   -0.3169    3.7799 H   0  0  0  0  0  0  0  0  0  0  0  0
   -3.8189    5.8040    8.0062 H   0  0  0  0  0  0  0  0  0  0  0  0
   -4.6819   12.4587    6.6599 H   0  0  0  0  0  0  0  0  0  0  0  0
   -6.0931   14.0215    5.3190 H   0  0  0  0  0  0  0  0  0  0  0  0
   -9.7256   11.7326    3.8515 H   0  0  0  0  0  0  0  0  0  0  0  0
  1  2  1  0  0  0  0
  1 41  1  0  0  0  0
  1 42  1  0  0  0  0
  1 43  1  0  0  0  0
  2  3  1  0  0  0  0
  3  4  1  0  0  0  0
  3 40  2  0  0  0  0
  4  5  2  0  0  0  0
  4 44  1  0  0  0  0
  5  6  1  0  0  0  0
  5 45  1  0  0  0  0
  6  7  1  0  0  0  0
  6 39  2  0  0  0  0
  7  8  1  0  0  0  0
  7 36  2  0  0  0  0
  8  9  1  0  0  0  0
  9 10  1  0  0  0  0
  9 34  2  0  0  0  0
 10 11  2  0  0  0  0
 10 46  1  0  0  0  0
 11 12  1  0  0  0  0
 11 47  1  0  0  0  0
 12 13  1  0  0  0  0
 12 33  2  0  0  0  0
 13 14  1  0  0  0  0
 13 48  1  0  0  0  0
 14 15  2  0  0  0  0
 14 16  1  0  0  0  0
 16 17  2  0  0  0  0
 16 31  1  0  0  0  0
 17 18  1  0  0  0  0
 17 19  1  0  0  0  0
 18 49  1  0  0  0  0
 18 50  1  0  0  0  0
 18 51  1  0  0  0  0
 19 20  1  0  0  0  0
 19 24  1  0  0  0  0
 20 52  1  0  0  0  0
 20 53  1  0  0  0  0
 21 23  1  0  0  0  0
 21 22  1  0  0  0  0
 21 20  1  0  0  0  0
 21 54  1  1  0  0  0
 22 55  1  0  0  0  0
 22 56  1  0  0  0  0
 22 57  1  0  0  0  0
 23 58  1  0  0  0  0
 24 25  1  0  0  0  0
 24 31  1  0  0  0  0
 25 26  1  0  0  0  0
 25 30  2  0  0  0  0
 26 27  2  0  0  0  0
 26 59  1  0  0  0  0
 27 28  1  0  0  0  0
 27 60  1  0  0  0  0
 28 29  2  0  0  0  0
 28 61  1  0  0  0  0
 29 30  1  0  0  0  0
 29 62  1  0  0  0  0
 30 63  1  0  0  0  0
 31 32  2  0  0  0  0
 33 34  1  0  0  0  0
 33 64  1  0  0  0  0
 34 35  1  0  0  0  0
 36 37  1  0  0  0  0
 36 65  1  0  0  0  0
 37 38  2  0  0  0  0
 37 66  1  0  0  0  0
 38 39  1  0  0  0  0
 39 40  1  0  0  0  0
 40 67  1  0  0  0  0
M  END
$$$$
