CHEMBL1271781
 OpenBabel04072215363D

 30 32  0  0  0  0  0  0  0  0999 V2000
    1.1483   -0.5844   -0.5026 O   0  0  0  0  0  0  0  0  0  0  0  0
    2.2497   -0.1622   -0.1610 C   0  0  0  0  0  0  0  0  0  0  0  0
    2.7538   -0.1814    1.1267 N   0  0  0  0  0  0  0  0  0  0  0  0
    2.1098   -0.7595    2.2464 C   0  0  0  0  0  0  0  0  0  0  0  0
    0.9969   -1.5895    2.1779 C   0  0  0  0  0  0  0  0  0  0  0  0
    0.3582   -2.1094    3.2564 N   0  0  0  0  0  0  0  0  0  0  0  0
    0.8145   -1.7858    4.4749 C   0  0  0  0  0  0  0  0  0  0  0  0
    0.1461   -2.2614    5.5924 C   0  0  0  0  0  0  0  0  0  0  0  0
    0.5582   -1.9346    6.8866 C   0  0  0  0  0  0  0  0  0  0  0  0
    1.6715   -1.1233    7.0724 C   0  0  0  0  0  0  0  0  0  0  0  0
    2.3704   -0.6447    5.9647 C   0  0  0  0  0  0  0  0  0  0  0  0
    1.9474   -0.9654    4.6601 C   0  0  0  0  0  0  0  0  0  0  0  0
    2.6054   -0.4757    3.5197 C   0  0  0  0  0  0  0  0  0  0  0  0
    3.0552    0.5141   -1.2011 C   0  0  0  0  0  0  0  0  0  0  0  0
    2.3467    1.3112   -2.1183 C   0  0  0  0  0  0  0  0  0  0  0  0
    3.0209    1.9361   -3.1585 C   0  0  0  0  0  0  0  0  0  0  0  0
    2.1778    2.9018   -4.2966 Cl  0  0  0  0  0  0  0  0  0  0  0  0
    4.3881    1.7527   -3.2515 C   0  0  0  0  0  0  0  0  0  0  0  0
    5.1040    0.9936   -2.3866 N   0  0  0  0  0  0  0  0  0  0  0  0
    4.4289    0.3704   -1.3849 C   0  0  0  0  0  0  0  0  0  0  0  0
    5.5011   -0.7613   -0.2920 Br  0  0  0  0  0  0  0  0  0  0  0  0
    3.6216    0.3073    1.3116 H   0  0  0  0  0  0  0  0  0  0  0  0
    0.5591   -1.9014    1.2359 H   0  0  0  0  0  0  0  0  0  0  0  0
   -0.7268   -2.8935    5.4507 H   0  0  0  0  0  0  0  0  0  0  0  0
    0.0042   -2.3126    7.7417 H   0  0  0  0  0  0  0  0  0  0  0  0
    1.9911   -0.8593    8.0773 H   0  0  0  0  0  0  0  0  0  0  0  0
    3.2373   -0.0079    6.1232 H   0  0  0  0  0  0  0  0  0  0  0  0
    3.4798    0.1576    3.6389 H   0  0  0  0  0  0  0  0  0  0  0  0
    1.2680    1.4274   -2.0225 H   0  0  0  0  0  0  0  0  0  0  0  0
    4.9669    2.2135   -4.0477 H   0  0  0  0  0  0  0  0  0  0  0  0
  1  2  2  0  0  0  0
  2  3  1  0  0  0  0
  2 14  1  0  0  0  0
  3  4  1  0  0  0  0
  3 22  1  0  0  0  0
  4  5  1  0  0  0  0
  4 13  2  0  0  0  0
  5  6  2  0  0  0  0
  5 23  1  0  0  0  0
  6  7  1  0  0  0  0
  7  8  1  0  0  0  0
  7 12  2  0  0  0  0
  8  9  2  0  0  0  0
  8 24  1  0  0  0  0
  9 10  1  0  0  0  0
  9 25  1  0  0  0  0
 10 11  2  0  0  0  0
 10 26  1  0  0  0  0
 11 12  1  0  0  0  0
 11 27  1  0  0  0  0
 12 13  1  0  0  0  0
 13 28  1  0  0  0  0
 14 15  1  0  0  0  0
 14 20  2  0  0  0  0
 15 16  2  0  0  0  0
 15 29  1  0  0  0  0
 16 17  1  0  0  0  0
 16 18  1  0  0  0  0
 18 19  2  0  0  0  0
 18 30  1  0  0  0  0
 19 20  1  0  0  0  0
 20 21  1  0  0  0  0
M  END
$$$$
