CHEMBL3422069
 OpenBabel04072215363D

 71 76  0  0  1  0  0  0  0  0999 V2000
    0.6587    2.1212    1.2874 C   0  0  0  0  0  0  0  0  0  0  0  0
    2.0278    2.0035    0.7787 N   0  0  0  0  0  0  0  0  0  0  0  0
    2.3710    0.5872    0.5902 C   0  0  0  0  0  0  0  0  0  0  0  0
    3.8005    0.4403    0.0706 C   0  0  0  0  0  0  0  0  0  0  0  0
    3.9574    1.1538   -1.2715 C   0  0  0  0  0  0  0  0  0  0  0  0
    3.0705    0.6140   -2.2531 O   0  0  0  0  0  0  0  0  0  0  0  0
    3.2910   -0.6420   -2.7354 C   0  0  0  0  0  0  0  0  0  0  0  0
    2.1477   -1.2719   -3.1823 C   0  0  0  0  0  0  0  0  0  0  0  0
    2.2366   -2.5179   -3.7821 C   0  0  0  0  0  0  0  0  0  0  0  0
    3.4834   -3.1333   -4.0061 C   0  0  0  0  0  0  0  0  0  0  0  0
    3.4241   -4.3460   -4.8228 C   0  0  0  0  0  0  0  0  0  0  0  0
    2.6131   -4.3195   -5.8994 N   0  0  0  0  0  0  0  0  0  0  0  0
    2.2097   -5.5765   -6.0294 N   0  0  0  0  0  0  0  0  0  0  0  0
    2.8150   -6.4330   -5.1596 C   0  0  0  0  0  0  0  0  0  0  0  0
    2.5389   -7.7680   -4.8485 C   0  0  0  0  0  0  0  0  0  0  0  0
    3.4415   -8.4156   -4.0037 C   0  0  0  0  0  0  0  0  0  0  0  0
    4.5848   -7.7575   -3.5385 C   0  0  0  0  0  0  0  0  0  0  0  0
    5.6285   -8.5612   -2.8433 C   0  0  0  0  0  0  0  0  0  0  0  0
    5.3209   -9.4981   -2.1204 O   0  0  0  0  0  0  0  0  0  0  0  0
    6.9209   -8.1851   -3.1358 N   0  0  0  0  0  0  0  0  0  0  0  0
    8.0964   -8.8742   -2.6243 C   0  0  3  0  0  0  0  0  0  0  0  0
    8.5113   -9.9656   -3.5967 C   0  0  0  0  0  0  0  0  0  0  0  0
    9.1871  -11.1723   -3.1934 C   0  0  0  0  0  0  0  0  0  0  0  0
    9.4965  -11.9979   -4.2513 C   0  0  0  0  0  0  0  0  0  0  0  0
    8.9812  -11.3457   -5.7439 S   0  0  0  0  0  0  0  0  0  0  0  0
    8.3380   -9.9616   -4.9700 C   0  0  0  0  0  0  0  0  0  0  0  0
    9.2571   -7.8886   -2.3495 C   0  0  0  0  0  0  0  0  0  0  0  0
    8.9164   -6.7778   -1.3492 C   0  0  0  0  0  0  0  0  0  0  0  0
    9.9710   -5.6951   -1.5809 C   0  0  0  0  0  0  0  0  0  0  0  0
   10.6010   -5.9857   -2.9403 C   0  0  0  0  0  0  0  0  0  0  0  0
    9.7531   -7.0887   -3.5593 C   0  0  0  0  0  0  0  0  0  0  0  0
    4.7493   -6.3699   -3.7301 C   0  0  0  0  0  0  0  0  0  0  0  0
    3.8128   -5.6911   -4.5400 C   0  0  0  0  0  0  0  0  0  0  0  0
    4.6330   -2.5353   -3.4976 C   0  0  0  0  0  0  0  0  0  0  0  0
    4.5311   -1.2822   -2.8595 C   0  0  0  0  0  0  0  0  0  0  0  0
    3.5693    2.6219   -1.0788 C   0  0  0  0  0  0  0  0  0  0  0  0
    2.1662    2.7626   -0.4752 C   0  0  0  0  0  0  0  0  0  0  0  0
    0.5434    1.5572    2.2203 H   0  0  0  0  0  0  0  0  0  0  0  0
   -0.0826    1.7486    0.5703 H   0  0  0  0  0  0  0  0  0  0  0  0
    0.4230    3.1651    1.5181 H   0  0  0  0  0  0  0  0  0  0  0  0
    1.6638    0.0972   -0.0927 H   0  0  0  0  0  0  0  0  0  0  0  0
    2.3032    0.0616    1.5503 H   0  0  0  0  0  0  0  0  0  0  0  0
    4.0390   -0.6252   -0.0195 H   0  0  0  0  0  0  0  0  0  0  0  0
    4.5052    0.8662    0.7960 H   0  0  0  0  0  0  0  0  0  0  0  0
    4.9917    1.1196   -1.6308 H   0  0  0  0  0  0  0  0  0  0  0  0
    1.1696   -0.7964   -3.0973 H   0  0  0  0  0  0  0  0  0  0  0  0
    1.3246   -2.9996   -4.1316 H   0  0  0  0  0  0  0  0  0  0  0  0
    1.4831   -5.7774   -6.7070 H   0  0  0  0  0  0  0  0  0  0  0  0
    1.6554   -8.2649   -5.2271 H   0  0  0  0  0  0  0  0  0  0  0  0
    3.2610   -9.4555   -3.7378 H   0  0  0  0  0  0  0  0  0  0  0  0
    7.0583   -7.5761   -3.9279 H   0  0  0  0  0  0  0  0  0  0  0  0
    7.8165   -9.3523   -1.6756 H   0  0  0  0  0  0  0  0  0  0  0  0
    9.4367  -11.4229   -2.1706 H   0  0  0  0  0  0  0  0  0  0  0  0
    9.9957  -12.9556   -4.2056 H   0  0  0  0  0  0  0  0  0  0  0  0
    7.8721   -9.1949   -5.5831 H   0  0  0  0  0  0  0  0  0  0  0  0
   10.1089   -8.4574   -1.9477 H   0  0  0  0  0  0  0  0  0  0  0  0
    8.9265   -7.1380   -0.3156 H   0  0  0  0  0  0  0  0  0  0  0  0
    7.9237   -6.3548   -1.5412 H   0  0  0  0  0  0  0  0  0  0  0  0
   10.7365   -5.7162   -0.7969 H   0  0  0  0  0  0  0  0  0  0  0  0
    9.5125   -4.6993   -1.5600 H   0  0  0  0  0  0  0  0  0  0  0  0
   11.6313   -6.3346   -2.8045 H   0  0  0  0  0  0  0  0  0  0  0  0
   10.6360   -5.0963   -3.5767 H   0  0  0  0  0  0  0  0  0  0  0  0
   10.3354   -7.6981   -4.2565 H   0  0  0  0  0  0  0  0  0  0  0  0
    8.9256   -6.6346   -4.1148 H   0  0  0  0  0  0  0  0  0  0  0  0
    5.5853   -5.8373   -3.2842 H   0  0  0  0  0  0  0  0  0  0  0  0
    5.6108   -2.9879   -3.6282 H   0  0  0  0  0  0  0  0  0  0  0  0
    5.4408   -0.8034   -2.5120 H   0  0  0  0  0  0  0  0  0  0  0  0
    3.5844    3.1426   -2.0448 H   0  0  0  0  0  0  0  0  0  0  0  0
    4.2981    3.1170   -0.4288 H   0  0  0  0  0  0  0  0  0  0  0  0
    1.4156    2.4462   -1.2102 H   0  0  0  0  0  0  0  0  0  0  0  0
    1.9888    3.8268   -0.2740 H   0  0  0  0  0  0  0  0  0  0  0  0
  1  2  1  0  0  0  0
  1 38  1  0  0  0  0
  1 39  1  0  0  0  0
  1 40  1  0  0  0  0
  2  3  1  0  0  0  0
  2 37  1  0  0  0  0
  3  4  1  0  0  0  0
  3 41  1  0  0  0  0
  3 42  1  0  0  0  0
  4  5  1  0  0  0  0
  4 43  1  0  0  0  0
  4 44  1  0  0  0  0
  5  6  1  0  0  0  0
  5 36  1  0  0  0  0
  5 45  1  0  0  0  0
  6  7  1  0  0  0  0
  7  8  1  0  0  0  0
  7 35  2  0  0  0  0
  8  9  2  0  0  0  0
  8 46  1  0  0  0  0
  9 10  1  0  0  0  0
  9 47  1  0  0  0  0
 10 11  1  0  0  0  0
 10 34  2  0  0  0  0
 11 12  2  0  0  0  0
 11 33  1  0  0  0  0
 12 13  1  0  0  0  0
 13 14  1  0  0  0  0
 13 48  1  0  0  0  0
 14 15  1  0  0  0  0
 14 33  2  0  0  0  0
 15 16  2  0  0  0  0
 15 49  1  0  0  0  0
 16 17  1  0  0  0  0
 16 50  1  0  0  0  0
 17 18  1  0  0  0  0
 17 32  2  0  0  0  0
 18 19  2  0  0  0  0
 18 20  1  0  0  0  0
 20 21  1  0  0  0  0
 20 51  1  0  0  0  0
 21 22  1  0  0  0  0
 21 27  1  0  0  0  0
 21 52  1  0  0  0  0
 22 23  1  0  0  0  0
 22 26  2  0  0  0  0
 23 24  2  0  0  0  0
 23 53  1  0  0  0  0
 24 25  1  0  0  0  0
 24 54  1  0  0  0  0
 25 26  1  0  0  0  0
 26 55  1  0  0  0  0
 27 28  1  0  0  0  0
 27 31  1  0  0  0  0
 27 56  1  0  0  0  0
 28 29  1  0  0  0  0
 28 57  1  0  0  0  0
 28 58  1  0  0  0  0
 29 30  1  0  0  0  0
 29 59  1  0  0  0  0
 29 60  1  0  0  0  0
 30 31  1  0  0  0  0
 30 61  1  0  0  0  0
 30 62  1  0  0  0  0
 31 63  1  0  0  0  0
 31 64  1  0  0  0  0
 32 33  1  0  0  0  0
 32 65  1  0  0  0  0
 34 35  1  0  0  0  0
 34 66  1  0  0  0  0
 35 67  1  0  0  0  0
 36 37  1  0  0  0  0
 36 68  1  0  0  0  0
 36 69  1  0  0  0  0
 37 70  1  0  0  0  0
 37 71  1  0  0  0  0
M  END
$$$$
