CHEMBL1996837
 OpenBabel04072215363D

 24 25  0  0  0  0  0  0  0  0999 V2000
    1.2275    0.2695   -0.0811 C   0  0  0  0  0  0  0  0  0  0  0  0
    2.7042    0.1575   -0.0844 C   0  0  0  0  0  0  0  0  0  0  0  0
    3.2803   -1.0711   -0.0875 N   0  0  0  0  0  0  0  0  0  0  0  0
    4.6155   -0.8160   -0.0899 N   0  0  0  0  0  0  0  0  0  0  0  0
    5.5847   -1.8804   -0.0948 C   0  0  0  0  0  0  0  0  0  0  0  0
    4.8705    0.5059   -0.0886 C   0  0  0  0  0  0  0  0  0  0  0  0
    6.2026    1.4843   -0.0884 S   0  0  0  0  0  0  0  0  0  0  0  0
    5.1592    2.8976   -0.0853 C   0  0  0  0  0  0  0  0  0  0  0  0
    5.7548    4.2252   -0.0848 C   0  0  0  0  0  0  0  0  0  0  0  0
    7.1260    4.2794   -0.0858 N   0  0  0  0  0  0  0  0  0  0  0  0
    5.1204    5.2788   -0.0827 O   0  0  0  0  0  0  0  0  0  0  0  0
    3.8048    2.5336   -0.0836 C   0  0  0  0  0  0  0  0  0  0  0  0
    2.7860    3.4149   -0.0806 N   0  0  0  0  0  0  0  0  0  0  0  0
    3.6954    1.1414   -0.0845 C   0  0  0  0  0  0  0  0  0  0  0  0
    0.7566   -0.7210   -0.0773 H   0  0  0  0  0  0  0  0  0  0  0  0
    0.8749    0.7992   -0.9709 H   0  0  0  0  0  0  0  0  0  0  0  0
    0.8799    0.8032    0.8084 H   0  0  0  0  0  0  0  0  0  0  0  0
    5.0732   -2.8441   -0.0911 H   0  0  0  0  0  0  0  0  0  0  0  0
    6.2070   -1.7799    0.7981 H   0  0  0  0  0  0  0  0  0  0  0  0
    6.1959   -1.7807   -0.9956 H   0  0  0  0  0  0  0  0  0  0  0  0
    7.6863    3.4411   -0.0868 H   0  0  0  0  0  0  0  0  0  0  0  0
    7.5771    5.1816   -0.0849 H   0  0  0  0  0  0  0  0  0  0  0  0
    2.9599    4.4220   -0.0797 H   0  0  0  0  0  0  0  0  0  0  0  0
    1.8050    3.1594   -0.0773 H   0  0  0  0  0  0  0  0  0  0  0  0
  1  2  1  0  0  0  0
  1 15  1  0  0  0  0
  1 16  1  0  0  0  0
  1 17  1  0  0  0  0
  2  3  2  0  0  0  0
  2 14  1  0  0  0  0
  3  4  1  0  0  0  0
  4  5  1  0  0  0  0
  4  6  1  0  0  0  0
  5 18  1  0  0  0  0
  5 19  1  0  0  0  0
  5 20  1  0  0  0  0
  6  7  1  0  0  0  0
  6 14  2  0  0  0  0
  7  8  1  0  0  0  0
  8  9  1  0  0  0  0
  8 12  2  0  0  0  0
  9 10  1  0  0  0  0
  9 11  2  0  0  0  0
 10 21  1  0  0  0  0
 10 22  1  0  0  0  0
 12 13  1  0  0  0  0
 12 14  1  0  0  0  0
 13 23  1  0  0  0  0
 13 24  1  0  0  0  0
M  END
$$$$
