CHEMBL1254006
 OpenBabel04072215363D

 57 60  0  0  0  0  0  0  0  0999 V2000
    3.7264   -1.0071   -1.0011 C   0  0  0  0  0  0  0  0  0  0  0  0
    3.4720   -0.5633    0.3553 N   0  0  0  0  0  0  0  0  0  0  0  0
    4.0231    0.5354    1.0123 C   0  0  0  0  0  0  0  0  0  0  0  0
    5.0222    1.5286    0.4567 C   0  0  0  0  0  0  0  0  0  0  0  0
    4.9002    2.9061    1.1275 C   0  0  0  0  0  0  0  0  0  0  0  0
    6.4515    1.0082    0.6124 C   0  0  0  0  0  0  0  0  0  0  0  0
    4.7424    1.7140   -0.9267 O   0  0  0  0  0  0  0  0  0  0  0  0
    3.5247    0.4968    2.3095 C   0  0  0  0  0  0  0  0  0  0  0  0
    2.6342   -0.5832    2.4233 C   0  0  0  0  0  0  0  0  0  0  0  0
    1.9263   -0.9724    3.5023 N   0  0  0  0  0  0  0  0  0  0  0  0
    1.1494   -2.0341    3.2728 C   0  0  0  0  0  0  0  0  0  0  0  0
    1.0232   -2.7217    2.1283 N   0  0  0  0  0  0  0  0  0  0  0  0
    1.7840   -2.3526    1.0710 C   0  0  0  0  0  0  0  0  0  0  0  0
    1.7149   -3.0896   -0.1079 O   0  0  0  0  0  0  0  0  0  0  0  0
    1.5483   -4.4547    0.0110 C   0  0  0  0  0  0  0  0  0  0  0  0
    2.1113   -5.2013    1.0448 C   0  0  0  0  0  0  0  0  0  0  0  0
    1.9049   -6.5785    1.1226 C   0  0  0  0  0  0  0  0  0  0  0  0
    1.1607   -7.2527    0.1533 C   0  0  0  0  0  0  0  0  0  0  0  0
    0.9467   -8.6559    0.2135 N   0  0  0  0  0  0  0  0  0  0  0  0
    1.2263   -9.4761    1.2921 C   0  0  0  0  0  0  0  0  0  0  0  0
    1.5950   -9.0907    2.3954 O   0  0  0  0  0  0  0  0  0  0  0  0
    1.0897  -10.8204    0.9704 N   0  0  0  0  0  0  0  0  0  0  0  0
    1.3461  -11.8216    1.9378 C   0  0  0  0  0  0  0  0  0  0  0  0
    2.1480  -12.9077    1.5787 C   0  0  0  0  0  0  0  0  0  0  0  0
    2.4835  -13.8711    2.5309 C   0  0  0  0  0  0  0  0  0  0  0  0
    1.9760  -13.7858    3.8282 C   0  0  0  0  0  0  0  0  0  0  0  0
    1.1343  -12.7255    4.1925 C   0  0  0  0  0  0  0  0  0  0  0  0
    0.5390  -12.6410    5.5761 C   0  0  0  0  0  0  0  0  0  0  0  0
    0.8493  -13.7085    6.3655 F   0  0  0  0  0  0  0  0  0  0  0  0
    0.9428  -11.5405    6.2679 F   0  0  0  0  0  0  0  0  0  0  0  0
   -0.8234  -12.5894    5.5527 F   0  0  0  0  0  0  0  0  0  0  0  0
    0.8415  -11.7359    3.2400 C   0  0  0  0  0  0  0  0  0  0  0  0
    0.6458   -6.5022   -0.9210 C   0  0  0  0  0  0  0  0  0  0  0  0
   -0.2424   -7.2711   -2.1941 Cl  0  0  0  0  0  0  0  0  0  0  0  0
    0.8384   -5.1130   -0.9941 C   0  0  0  0  0  0  0  0  0  0  0  0
    2.5971   -1.2313    1.1995 C   0  0  0  0  0  0  0  0  0  0  0  0
    4.5664   -0.4827   -1.4491 H   0  0  0  0  0  0  0  0  0  0  0  0
    2.8178   -0.8402   -1.5868 H   0  0  0  0  0  0  0  0  0  0  0  0
    3.9767   -2.0711   -0.9768 H   0  0  0  0  0  0  0  0  0  0  0  0
    5.1504    2.8737    2.1932 H   0  0  0  0  0  0  0  0  0  0  0  0
    3.8820    3.3027    1.0294 H   0  0  0  0  0  0  0  0  0  0  0  0
    5.5631    3.6340    0.6455 H   0  0  0  0  0  0  0  0  0  0  0  0
    6.7145    0.8630    1.6668 H   0  0  0  0  0  0  0  0  0  0  0  0
    7.1718    1.7089    0.1740 H   0  0  0  0  0  0  0  0  0  0  0  0
    6.5908    0.0530    0.0944 H   0  0  0  0  0  0  0  0  0  0  0  0
    3.9268    2.2396   -0.9863 H   0  0  0  0  0  0  0  0  0  0  0  0
    3.7735    1.1821    3.1086 H   0  0  0  0  0  0  0  0  0  0  0  0
    0.5585   -2.3869    4.1121 H   0  0  0  0  0  0  0  0  0  0  0  0
    2.7001   -4.7285    1.8268 H   0  0  0  0  0  0  0  0  0  0  0  0
    2.3529   -7.0881    1.9693 H   0  0  0  0  0  0  0  0  0  0  0  0
    0.3786   -9.0501   -0.5286 H   0  0  0  0  0  0  0  0  0  0  0  0
    1.3323  -11.0438    0.0160 H   0  0  0  0  0  0  0  0  0  0  0  0
    2.5714  -12.9825    0.5820 H   0  0  0  0  0  0  0  0  0  0  0  0
    3.1534  -14.6854    2.2650 H   0  0  0  0  0  0  0  0  0  0  0  0
    2.2423  -14.5510    4.5562 H   0  0  0  0  0  0  0  0  0  0  0  0
    0.2037  -10.8973    3.5229 H   0  0  0  0  0  0  0  0  0  0  0  0
    0.4285   -4.5444   -1.8244 H   0  0  0  0  0  0  0  0  0  0  0  0
  1  2  1  0  0  0  0
  1 37  1  0  0  0  0
  1 38  1  0  0  0  0
  1 39  1  0  0  0  0
  2  3  1  0  0  0  0
  2 36  1  0  0  0  0
  3  4  1  0  0  0  0
  3  8  2  0  0  0  0
  4  5  1  0  0  0  0
  4  6  1  0  0  0  0
  4  7  1  0  0  0  0
  5 40  1  0  0  0  0
  5 41  1  0  0  0  0
  5 42  1  0  0  0  0
  6 43  1  0  0  0  0
  6 44  1  0  0  0  0
  6 45  1  0  0  0  0
  7 46  1  0  0  0  0
  8  9  1  0  0  0  0
  8 47  1  0  0  0  0
  9 10  1  0  0  0  0
  9 36  2  0  0  0  0
 10 11  2  0  0  0  0
 11 12  1  0  0  0  0
 11 48  1  0  0  0  0
 12 13  2  0  0  0  0
 13 14  1  0  0  0  0
 13 36  1  0  0  0  0
 14 15  1  0  0  0  0
 15 16  1  0  0  0  0
 15 35  2  0  0  0  0
 16 17  2  0  0  0  0
 16 49  1  0  0  0  0
 17 18  1  0  0  0  0
 17 50  1  0  0  0  0
 18 19  1  0  0  0  0
 18 33  2  0  0  0  0
 19 20  1  0  0  0  0
 19 51  1  0  0  0  0
 20 21  2  0  0  0  0
 20 22  1  0  0  0  0
 22 23  1  0  0  0  0
 22 52  1  0  0  0  0
 23 24  1  0  0  0  0
 23 32  2  0  0  0  0
 24 25  2  0  0  0  0
 24 53  1  0  0  0  0
 25 26  1  0  0  0  0
 25 54  1  0  0  0  0
 26 27  2  0  0  0  0
 26 55  1  0  0  0  0
 27 28  1  0  0  0  0
 27 32  1  0  0  0  0
 28 29  1  0  0  0  0
 28 30  1  0  0  0  0
 28 31  1  0  0  0  0
 32 56  1  0  0  0  0
 33 34  1  0  0  0  0
 33 35  1  0  0  0  0
 35 57  1  0  0  0  0
M  END
$$$$
