CHEMBL3942506
 OpenBabel04072215373D

 70 72  0  0  1  0  0  0  0  0999 V2000
    0.7248   -2.0882   -2.8100 C   0  0  0  0  0  0  0  0  0  0  0  0
    2.1151   -2.2843   -2.6210 O   0  0  0  0  0  0  0  0  0  0  0  0
    2.7952   -1.0428   -2.6531 C   0  0  0  0  0  0  0  0  0  0  0  0
    4.3434   -1.2794   -2.7435 C   0  0  1  0  0  0  0  0  0  0  0  0
    4.6368   -2.0121   -3.9090 O   0  0  0  0  0  0  0  0  0  0  0  0
    5.0935    0.0698   -2.7884 C   0  0  0  0  0  0  0  0  0  0  0  0
    6.6198    0.0433   -2.8824 N   0  0  0  0  0  0  0  0  0  0  0  0
    7.2887   -0.1386   -1.5915 C   0  0  0  0  0  0  0  0  0  0  0  0
    6.5500   -0.1105   -0.3492 C   0  0  0  0  0  0  0  0  0  0  0  0
    7.1646   -0.1904    0.9079 C   0  0  0  0  0  0  0  0  0  0  0  0
    6.3791   -0.0935    2.0226 O   0  0  0  0  0  0  0  0  0  0  0  0
    6.8028   -0.0961    3.3395 C   0  0  0  0  0  0  0  0  0  0  0  0
    8.5474   -0.3643    0.9627 C   0  0  0  0  0  0  0  0  0  0  0  0
    9.2961   -0.4466   -0.2216 C   0  0  0  0  0  0  0  0  0  0  0  0
   10.6174   -0.7094   -0.1187 O   0  0  0  0  0  0  0  0  0  0  0  0
   11.4112   -1.0250   -1.1988 C   0  0  0  0  0  0  0  0  0  0  0  0
    8.6629   -0.2986   -1.4867 C   0  0  0  0  0  0  0  0  0  0  0  0
    7.2155    0.6214   -4.1490 C   0  0  0  0  0  0  0  0  0  0  0  0
    6.4040    1.6580   -4.5462 C   0  0  0  0  0  0  0  0  0  0  0  0
    6.3731    2.1543   -5.7401 C   0  0  0  0  0  0  0  0  0  0  0  0
    7.2595    1.8187   -6.6681 C   0  0  0  0  0  0  0  0  0  0  0  0
    6.8971    2.2851   -7.8311 N   0  0  0  0  0  0  0  0  0  0  0  0
    7.6339    2.2519   -8.8775 C   0  0  0  0  0  0  0  0  0  0  0  0
    8.9646    1.8884   -8.8065 C   0  0  0  0  0  0  0  0  0  0  0  0
    9.5809    2.4831  -10.1786 C   0  0  0  0  0  0  0  0  0  0  0  0
   10.6318    2.2711  -11.0896 C   0  0  0  0  0  0  0  0  0  0  0  0
   10.5130    3.1630  -12.1566 N   0  0  0  0  0  0  0  0  0  0  0  0
    9.4589    3.9487  -11.9958 N   0  0  0  0  0  0  0  0  0  0  0  0
    8.9664    5.1004  -12.8432 C   0  0  0  0  0  0  0  0  0  0  0  0
    8.6016    4.7394  -14.3144 C   0  0  0  0  0  0  0  0  0  0  0  0
    8.1583    5.9660  -15.1802 C   0  0  0  0  0  0  0  0  0  0  0  0
    7.9140    5.5682  -16.5718 N   0  0  0  0  0  0  0  0  0  0  0  0
    8.9362    3.6300  -10.8011 C   0  0  0  0  0  0  0  0  0  0  0  0
    9.3417    1.1490   -7.6026 N   0  0  0  0  0  0  0  0  0  0  0  0
    8.4347    1.0944   -6.4702 C   0  0  0  0  0  0  0  0  0  0  0  0
    8.3979    0.3610   -5.1052 C   0  0  0  0  0  0  0  0  0  0  0  0
    1.5798    2.8760   -0.2171 Cl  0  0  0  0  0  0  0  0  0  0  0  0
    0.2077   -3.0556   -2.6344 H   0  0  0  0  0  0  0  0  0  0  0  0
    0.4951   -1.7874   -3.8567 H   0  0  0  0  0  0  0  0  0  0  0  0
    0.2935   -1.3656   -2.0803 H   0  0  0  0  0  0  0  0  0  0  0  0
    2.5607   -0.4654   -1.7289 H   0  0  0  0  0  0  0  0  0  0  0  0
    2.4654   -0.4387   -3.5357 H   0  0  0  0  0  0  0  0  0  0  0  0
    4.6611   -1.8622   -1.8577 H   0  0  0  0  0  0  0  0  0  0  0  0
    4.3845   -1.4498   -4.6939 H   0  0  0  0  0  0  0  0  0  0  0  0
    4.7557    0.7799   -2.0052 H   0  0  0  0  0  0  0  0  0  0  0  0
    4.5873    0.4668   -3.6782 H   0  0  0  0  0  0  0  0  0  0  0  0
    5.4828    0.0030   -0.2811 H   0  0  0  0  0  0  0  0  0  0  0  0
    5.9221    0.0166    4.0134 H   0  0  0  0  0  0  0  0  0  0  0  0
    7.4884    0.7574    3.5345 H   0  0  0  0  0  0  0  0  0  0  0  0
    7.3046   -1.0544    3.5876 H   0  0  0  0  0  0  0  0  0  0  0  0
    9.0487   -0.4554    1.9209 H   0  0  0  0  0  0  0  0  0  0  0  0
   12.4055   -1.3542   -0.8482 H   0  0  0  0  0  0  0  0  0  0  0  0
   11.5145   -0.1440   -1.8663 H   0  0  0  0  0  0  0  0  0  0  0  0
   10.9442   -1.8668   -1.7594 H   0  0  0  0  0  0  0  0  0  0  0  0
    9.2368   -0.3281   -2.3945 H   0  0  0  0  0  0  0  0  0  0  0  0
    5.6435    2.0924   -3.9352 H   0  0  0  0  0  0  0  0  0  0  0  0
    5.5724    2.8229   -5.9971 H   0  0  0  0  0  0  0  0  0  0  0  0
    7.1292    2.6174   -9.7270 H   0  0  0  0  0  0  0  0  0  0  0  0
   11.4049    1.5146  -11.0613 H   0  0  0  0  0  0  0  0  0  0  0  0
    9.7296    5.8973  -12.8579 H   0  0  0  0  0  0  0  0  0  0  0  0
    8.0475    5.5311  -12.3758 H   0  0  0  0  0  0  0  0  0  0  0  0
    7.7751    3.9938  -14.3402 H   0  0  0  0  0  0  0  0  0  0  0  0
    9.4997    4.3062  -14.7968 H   0  0  0  0  0  0  0  0  0  0  0  0
    8.9420    6.7573  -15.1760 H   0  0  0  0  0  0  0  0  0  0  0  0
    7.2230    6.4250  -14.7840 H   0  0  0  0  0  0  0  0  0  0  0  0
    8.8007    5.2095  -16.9948 H   0  0  0  0  0  0  0  0  0  0  0  0
    7.6302    6.4067  -17.1361 H   0  0  0  0  0  0  0  0  0  0  0  0
    8.1106    4.2053  -10.4101 H   0  0  0  0  0  0  0  0  0  0  0  0
    9.1693   -0.3664   -4.8332 H   0  0  0  0  0  0  0  0  0  0  0  0
    2.0229    1.5910   -0.0077 H   0  0  0  0  0  0  0  0  0  0  0  0
  1  2  1  0  0  0  0
  1 38  1  0  0  0  0
  1 39  1  0  0  0  0
  1 40  1  0  0  0  0
  2  3  1  0  0  0  0
  3  4  1  0  0  0  0
  3 41  1  0  0  0  0
  3 42  1  0  0  0  0
  4  5  1  0  0  0  0
  4  6  1  0  0  0  0
  4 43  1  1  0  0  0
  5 44  1  0  0  0  0
  6  7  1  0  0  0  0
  6 45  1  0  0  0  0
  6 46  1  0  0  0  0
  7  8  1  0  0  0  0
  7 18  1  0  0  0  0
  8  9  1  0  0  0  0
  8 17  2  0  0  0  0
  9 10  2  0  0  0  0
  9 47  1  0  0  0  0
 10 11  1  0  0  0  0
 10 13  1  0  0  0  0
 11 12  1  0  0  0  0
 12 48  1  0  0  0  0
 12 49  1  0  0  0  0
 12 50  1  0  0  0  0
 13 14  2  0  0  0  0
 13 51  1  0  0  0  0
 14 15  1  0  0  0  0
 14 17  1  0  0  0  0
 15 16  1  0  0  0  0
 16 52  1  0  0  0  0
 16 53  1  0  0  0  0
 16 54  1  0  0  0  0
 17 55  1  0  0  0  0
 18 19  1  0  0  0  0
 18 36  2  0  0  0  0
 19 20  2  0  0  0  0
 19 56  1  0  0  0  0
 20 21  1  0  0  0  0
 20 57  1  0  0  0  0
 21 22  1  0  0  0  0
 21 35  2  0  0  0  0
 22 23  2  0  0  0  0
 23 24  1  0  0  0  0
 23 58  1  0  0  0  0
 24 25  1  0  0  0  0
 24 34  2  0  0  0  0
 25 26  1  0  0  0  0
 25 33  2  0  0  0  0
 26 27  2  0  0  0  0
 26 59  1  0  0  0  0
 27 28  1  0  0  0  0
 28 29  1  0  0  0  0
 28 33  1  0  0  0  0
 29 30  1  0  0  0  0
 29 60  1  0  0  0  0
 29 61  1  0  0  0  0
 30 31  1  0  0  0  0
 30 62  1  0  0  0  0
 30 63  1  0  0  0  0
 31 32  1  0  0  0  0
 31 64  1  0  0  0  0
 31 65  1  0  0  0  0
 32 66  1  0  0  0  0
 32 67  1  0  0  0  0
 33 68  1  0  0  0  0
 34 35  1  0  0  0  0
 35 36  1  0  0  0  0
 36 69  1  0  0  0  0
 37 70  1  0  0  0  0
M  END
$$$$
