CHEMBL3099470
 OpenBabel04072215363D

 73 75  0  0  0  0  0  0  0  0999 V2000
    2.8288   -1.9935    1.0034 C   0  0  0  0  0  0  0  0  0  0  0  0
    3.3837   -0.8840    0.3058 O   0  0  0  0  0  0  0  0  0  0  0  0
    3.5866    0.2779    1.0030 C   0  0  0  0  0  0  0  0  0  0  0  0
    3.1788    0.4667    2.3323 C   0  0  0  0  0  0  0  0  0  0  0  0
    3.5722    1.5809    3.1111 C   0  0  0  0  0  0  0  0  0  0  0  0
    3.1917    1.6760    4.5595 C   0  0  0  0  0  0  0  0  0  0  0  0
    3.0556    0.4713    5.2900 C   0  0  0  0  0  0  0  0  0  0  0  0
    2.6293    0.4538    6.6138 C   0  0  0  0  0  0  0  0  0  0  0  0
    2.4826   -0.7755    7.2974 N   0  0  0  0  0  0  0  0  0  0  0  0
    1.2727   -1.4636    7.1684 C   0  0  0  0  0  0  0  0  0  0  0  0
    0.3062   -1.0758    6.5274 O   0  0  0  0  0  0  0  0  0  0  0  0
    1.3375   -2.6588    7.8871 N   0  0  0  0  0  0  0  0  0  0  0  0
    0.1578   -3.4362    8.0157 C   0  0  0  0  0  0  0  0  0  0  0  0
   -0.1213   -4.3939    7.0340 C   0  0  0  0  0  0  0  0  0  0  0  0
   -1.2449   -5.2206    7.1486 C   0  0  0  0  0  0  0  0  0  0  0  0
   -1.6323   -6.1814    6.2455 O   0  0  0  0  0  0  0  0  0  0  0  0
   -0.7679   -6.3339    5.1168 C   0  0  0  0  0  0  0  0  0  0  0  0
   -1.2895   -7.4287    4.1734 C   0  0  0  0  0  0  0  0  0  0  0  0
   -0.4431   -7.6025    2.9724 N   0  0  0  0  0  0  0  0  0  0  0  0
    0.9175   -8.0255    3.3098 C   0  0  0  0  0  0  0  0  0  0  0  0
   -1.0486   -8.5755    2.0609 C   0  0  0  0  0  0  0  0  0  0  0  0
   -2.0750   -5.0878    8.2614 C   0  0  0  0  0  0  0  0  0  0  0  0
   -1.8052   -4.1241    9.2372 C   0  0  0  0  0  0  0  0  0  0  0  0
   -0.6904   -3.2811    9.1224 C   0  0  0  0  0  0  0  0  0  0  0  0
   -0.4984   -2.1658   10.1095 C   0  0  0  0  0  0  0  0  0  0  0  0
    2.4038    1.6456    7.2885 C   0  0  0  0  0  0  0  0  0  0  0  0
    2.6061    2.8726    6.6416 C   0  0  0  0  0  0  0  0  0  0  0  0
    2.4369    4.0696    7.2896 O   0  0  0  0  0  0  0  0  0  0  0  0
    2.4044    4.0717    8.7111 C   0  0  0  0  0  0  0  0  0  0  0  0
    2.9620    2.8960    5.2653 C   0  0  0  0  0  0  0  0  0  0  0  0
    3.0342    4.0439    4.5046 O   0  0  0  0  0  0  0  0  0  0  0  0
    3.3597    5.2762    5.1367 C   0  0  0  0  0  0  0  0  0  0  0  0
    4.3657    2.5377    2.4623 C   0  0  0  0  0  0  0  0  0  0  0  0
    4.6982    2.4160    1.1088 C   0  0  0  0  0  0  0  0  0  0  0  0
    4.2913    1.3017    0.3632 C   0  0  0  0  0  0  0  0  0  0  0  0
    4.6350    1.2790   -1.0862 C   0  0  0  0  0  0  0  0  0  0  0  0
    3.6754    0.6544   -2.0751 C   0  0  0  0  0  0  0  0  0  0  0  0
    5.6694    1.8258   -1.4741 O   0  0  0  0  0  0  0  0  0  0  0  0
    2.8810   -2.8650    0.3438 H   0  0  0  0  0  0  0  0  0  0  0  0
    1.7754   -1.8084    1.2339 H   0  0  0  0  0  0  0  0  0  0  0  0
    3.3983   -2.2327    1.9084 H   0  0  0  0  0  0  0  0  0  0  0  0
    2.5303   -0.2743    2.7903 H   0  0  0  0  0  0  0  0  0  0  0  0
    3.2420   -0.4844    4.8079 H   0  0  0  0  0  0  0  0  0  0  0  0
    3.2205   -1.4392    7.0901 H   0  0  0  0  0  0  0  0  0  0  0  0
    1.7923   -2.4670    8.7709 H   0  0  0  0  0  0  0  0  0  0  0  0
    0.5611   -4.4768    6.1956 H   0  0  0  0  0  0  0  0  0  0  0  0
    0.2226   -6.6177    5.4868 H   0  0  0  0  0  0  0  0  0  0  0  0
   -0.7146   -5.3904    4.5599 H   0  0  0  0  0  0  0  0  0  0  0  0
   -2.3049   -7.1427    3.8650 H   0  0  0  0  0  0  0  0  0  0  0  0
   -1.3992   -8.3717    4.7247 H   0  0  0  0  0  0  0  0  0  0  0  0
    1.4499   -7.2470    3.8653 H   0  0  0  0  0  0  0  0  0  0  0  0
    1.5086   -8.1890    2.4015 H   0  0  0  0  0  0  0  0  0  0  0  0
    0.9290   -8.9481    3.9012 H   0  0  0  0  0  0  0  0  0  0  0  0
   -2.0444   -8.2459    1.7459 H   0  0  0  0  0  0  0  0  0  0  0  0
   -1.1366   -9.5684    2.5164 H   0  0  0  0  0  0  0  0  0  0  0  0
   -0.4481   -8.6681    1.1484 H   0  0  0  0  0  0  0  0  0  0  0  0
   -2.9510   -5.7244    8.3622 H   0  0  0  0  0  0  0  0  0  0  0  0
   -2.4910   -4.0195   10.0751 H   0  0  0  0  0  0  0  0  0  0  0  0
   -1.2611   -2.1860   10.8939 H   0  0  0  0  0  0  0  0  0  0  0  0
   -0.5837   -1.2020    9.5951 H   0  0  0  0  0  0  0  0  0  0  0  0
    0.4805   -2.2350   10.5924 H   0  0  0  0  0  0  0  0  0  0  0  0
    2.0798    1.5970    8.3220 H   0  0  0  0  0  0  0  0  0  0  0  0
    2.5799    5.0988    9.0475 H   0  0  0  0  0  0  0  0  0  0  0  0
    3.1923    3.4472    9.1466 H   0  0  0  0  0  0  0  0  0  0  0  0
    1.4155    3.7655    9.0635 H   0  0  0  0  0  0  0  0  0  0  0  0
    3.6516    5.9847    4.3543 H   0  0  0  0  0  0  0  0  0  0  0  0
    4.2123    5.1746    5.8174 H   0  0  0  0  0  0  0  0  0  0  0  0
    2.4860    5.7080    5.6333 H   0  0  0  0  0  0  0  0  0  0  0  0
    4.7550    3.3991    3.0000 H   0  0  0  0  0  0  0  0  0  0  0  0
    5.2904    3.1997    0.6325 H   0  0  0  0  0  0  0  0  0  0  0  0
    2.7614    0.2776   -1.6134 H   0  0  0  0  0  0  0  0  0  0  0  0
    4.1762   -0.1667   -2.5940 H   0  0  0  0  0  0  0  0  0  0  0  0
    3.3642    1.4177   -2.7935 H   0  0  0  0  0  0  0  0  0  0  0  0
  1  2  1  0  0  0  0
  1 39  1  0  0  0  0
  1 40  1  0  0  0  0
  1 41  1  0  0  0  0
  2  3  1  0  0  0  0
  3  4  1  0  0  0  0
  3 35  2  0  0  0  0
  4  5  2  0  0  0  0
  4 42  1  0  0  0  0
  5  6  1  0  0  0  0
  5 33  1  0  0  0  0
  6  7  1  0  0  0  0
  6 30  2  0  0  0  0
  7  8  2  0  0  0  0
  7 43  1  0  0  0  0
  8  9  1  0  0  0  0
  8 26  1  0  0  0  0
  9 10  1  0  0  0  0
  9 44  1  0  0  0  0
 10 11  2  0  0  0  0
 10 12  1  0  0  0  0
 12 13  1  0  0  0  0
 12 45  1  0  0  0  0
 13 14  1  0  0  0  0
 13 24  2  0  0  0  0
 14 15  2  0  0  0  0
 14 46  1  0  0  0  0
 15 16  1  0  0  0  0
 15 22  1  0  0  0  0
 16 17  1  0  0  0  0
 17 18  1  0  0  0  0
 17 47  1  0  0  0  0
 17 48  1  0  0  0  0
 18 19  1  0  0  0  0
 18 49  1  0  0  0  0
 18 50  1  0  0  0  0
 19 20  1  0  0  0  0
 19 21  1  0  0  0  0
 20 51  1  0  0  0  0
 20 52  1  0  0  0  0
 20 53  1  0  0  0  0
 21 54  1  0  0  0  0
 21 55  1  0  0  0  0
 21 56  1  0  0  0  0
 22 23  2  0  0  0  0
 22 57  1  0  0  0  0
 23 24  1  0  0  0  0
 23 58  1  0  0  0  0
 24 25  1  0  0  0  0
 25 59  1  0  0  0  0
 25 60  1  0  0  0  0
 25 61  1  0  0  0  0
 26 27  2  0  0  0  0
 26 62  1  0  0  0  0
 27 28  1  0  0  0  0
 27 30  1  0  0  0  0
 28 29  1  0  0  0  0
 29 63  1  0  0  0  0
 29 64  1  0  0  0  0
 29 65  1  0  0  0  0
 30 31  1  0  0  0  0
 31 32  1  0  0  0  0
 32 66  1  0  0  0  0
 32 67  1  0  0  0  0
 32 68  1  0  0  0  0
 33 34  2  0  0  0  0
 33 69  1  0  0  0  0
 34 35  1  0  0  0  0
 34 70  1  0  0  0  0
 35 36  1  0  0  0  0
 36 37  1  0  0  0  0
 36 38  2  0  0  0  0
 37 71  1  0  0  0  0
 37 72  1  0  0  0  0
 37 73  1  0  0  0  0
M  END
$$$$
