CHEMBL1242114
 OpenBabel04072215363D

 39 41  0  0  0  0  0  0  0  0999 V2000
    2.8835   -1.2170    0.4743 C   0  0  0  0  0  0  0  0  0  0  0  0
    2.3888    0.0601    0.8539 O   0  0  0  0  0  0  0  0  0  0  0  0
    3.1861    1.1415    0.5903 C   0  0  0  0  0  0  0  0  0  0  0  0
    4.4178    1.0809   -0.0611 C   0  0  0  0  0  0  0  0  0  0  0  0
    5.1734    2.2422   -0.2560 C   0  0  0  0  0  0  0  0  0  0  0  0
    4.6930    3.4943    0.1396 C   0  0  0  0  0  0  0  0  0  0  0  0
    5.4727    4.7141   -0.0883 C   0  0  0  0  0  0  0  0  0  0  0  0
    5.4206    5.7143    0.8126 N   0  0  0  0  0  0  0  0  0  0  0  0
    6.2903    6.6360    0.3464 N   0  0  0  0  0  0  0  0  0  0  0  0
    6.5255    7.8643    1.0989 C   0  0  0  0  0  0  0  0  0  0  0  0
    5.2493    8.6969    1.2240 C   0  0  0  0  0  0  0  0  0  0  0  0
    7.1286    7.5755    2.4739 C   0  0  0  0  0  0  0  0  0  0  0  0
    6.8688    6.2841   -0.8411 C   0  0  0  0  0  0  0  0  0  0  0  0
    7.7671    6.9988   -1.5428 N   0  0  0  0  0  0  0  0  0  0  0  0
    8.1311    6.3612   -2.6658 C   0  0  0  0  0  0  0  0  0  0  0  0
    7.6901    5.1784   -3.1226 N   0  0  0  0  0  0  0  0  0  0  0  0
    6.7790    4.5003   -2.3944 C   0  0  0  0  0  0  0  0  0  0  0  0
    6.3396    3.3039   -2.9480 N   0  0  0  0  0  0  0  0  0  0  0  0
    6.3421    5.0468   -1.1768 C   0  0  0  0  0  0  0  0  0  0  0  0
    3.4570    3.5566    0.8003 C   0  0  0  0  0  0  0  0  0  0  0  0
    2.7212    2.3894    1.0271 C   0  0  0  0  0  0  0  0  0  0  0  0
    1.5264    2.4612    1.6946 O   0  0  0  0  0  0  0  0  0  0  0  0
    2.1635   -1.9700    0.8082 H   0  0  0  0  0  0  0  0  0  0  0  0
    3.8400   -1.4360    0.9610 H   0  0  0  0  0  0  0  0  0  0  0  0
    2.9676   -1.2951   -0.6147 H   0  0  0  0  0  0  0  0  0  0  0  0
    4.8323    0.1452   -0.4204 H   0  0  0  0  0  0  0  0  0  0  0  0
    6.1562    2.1399   -0.7112 H   0  0  0  0  0  0  0  0  0  0  0  0
    7.2556    8.4526    0.5304 H   0  0  0  0  0  0  0  0  0  0  0  0
    4.4630    8.1550    1.7611 H   0  0  0  0  0  0  0  0  0  0  0  0
    4.8569    8.9584    0.2351 H   0  0  0  0  0  0  0  0  0  0  0  0
    5.4452    9.6281    1.7661 H   0  0  0  0  0  0  0  0  0  0  0  0
    6.4450    6.9934    3.1017 H   0  0  0  0  0  0  0  0  0  0  0  0
    7.3542    8.5092    3.0004 H   0  0  0  0  0  0  0  0  0  0  0  0
    8.0610    7.0079    2.3809 H   0  0  0  0  0  0  0  0  0  0  0  0
    8.8678    6.8664   -3.2854 H   0  0  0  0  0  0  0  0  0  0  0  0
    6.6372    3.2405   -3.9157 H   0  0  0  0  0  0  0  0  0  0  0  0
    5.3607    3.1005   -2.7852 H   0  0  0  0  0  0  0  0  0  0  0  0
    3.0807    4.5181    1.1407 H   0  0  0  0  0  0  0  0  0  0  0  0
    1.4081    3.3634    2.0314 H   0  0  0  0  0  0  0  0  0  0  0  0
  1  2  1  0  0  0  0
  1 23  1  0  0  0  0
  1 24  1  0  0  0  0
  1 25  1  0  0  0  0
  2  3  1  0  0  0  0
  3  4  1  0  0  0  0
  3 21  2  0  0  0  0
  4  5  2  0  0  0  0
  4 26  1  0  0  0  0
  5  6  1  0  0  0  0
  5 27  1  0  0  0  0
  6  7  1  0  0  0  0
  6 20  2  0  0  0  0
  7  8  2  0  0  0  0
  7 19  1  0  0  0  0
  8  9  1  0  0  0  0
  9 10  1  0  0  0  0
  9 13  1  0  0  0  0
 10 11  1  0  0  0  0
 10 12  1  0  0  0  0
 10 28  1  0  0  0  0
 11 29  1  0  0  0  0
 11 30  1  0  0  0  0
 11 31  1  0  0  0  0
 12 32  1  0  0  0  0
 12 33  1  0  0  0  0
 12 34  1  0  0  0  0
 13 14  1  0  0  0  0
 13 19  2  0  0  0  0
 14 15  2  0  0  0  0
 15 16  1  0  0  0  0
 15 35  1  0  0  0  0
 16 17  2  0  0  0  0
 17 18  1  0  0  0  0
 17 19  1  0  0  0  0
 18 36  1  0  0  0  0
 18 37  1  0  0  0  0
 20 21  1  0  0  0  0
 20 38  1  0  0  0  0
 21 22  1  0  0  0  0
 22 39  1  0  0  0  0
M  END
$$$$
