CHEMBL3984316
 OpenBabel04072215373D

 59 63  0  0  0  0  0  0  0  0999 V2000
    0.2582   -2.6386    8.4266 C   0  0  0  0  0  0  0  0  0  0  0  0
    1.6307   -3.2574    8.1416 C   0  0  0  0  0  0  0  0  0  0  0  0
    1.8296   -4.5170    8.9822 C   0  0  0  0  0  0  0  0  0  0  0  0
    1.8744   -3.4355    6.6470 C   0  0  0  0  0  0  0  0  0  0  0  0
    2.3772   -2.3380    5.9298 C   0  0  0  0  0  0  0  0  0  0  0  0
    2.6669   -2.4501    4.5852 C   0  0  0  0  0  0  0  0  0  0  0  0
    2.4715   -3.6713    3.9131 C   0  0  0  0  0  0  0  0  0  0  0  0
    1.9721   -4.7952    4.5810 C   0  0  0  0  0  0  0  0  0  0  0  0
    1.7799   -6.0815    3.9613 N   0  0  0  0  0  0  0  0  0  0  0  0
    2.0814   -6.4309    2.6511 C   0  0  0  0  0  0  0  0  0  0  0  0
    2.5368   -5.6347    1.8276 O   0  0  0  0  0  0  0  0  0  0  0  0
    1.8524   -7.8689    2.1704 C   0  0  0  0  0  0  0  0  0  0  0  0
    2.1281   -8.0479    0.8022 C   0  0  0  0  0  0  0  0  0  0  0  0
    1.9831   -9.2837    0.1939 C   0  0  0  0  0  0  0  0  0  0  0  0
    1.5763  -10.3824    0.9479 C   0  0  0  0  0  0  0  0  0  0  0  0
    1.3185  -10.3226    2.3402 C   0  0  0  0  0  0  0  0  0  0  0  0
    0.9596  -11.5171    3.0341 N   0  0  0  0  0  0  0  0  0  0  0  0
    0.6889  -11.5317    4.4777 C   0  0  0  0  0  0  0  0  0  0  0  0
    0.3209  -12.9083    5.1318 C   0  0  0  0  0  0  0  0  0  0  0  0
    0.7564  -14.1838    4.4462 C   0  0  0  0  0  0  0  0  0  0  0  0
    1.2313  -14.0605    3.1449 C   0  0  0  0  0  0  0  0  0  0  0  0
    1.5582  -15.2310    2.4675 C   0  0  0  0  0  0  0  0  0  0  0  0
    1.3327  -16.4764    2.9179 N   0  0  0  0  0  0  0  0  0  0  0  0
    0.8520  -16.6137    4.1514 C   0  0  0  0  0  0  0  0  0  0  0  0
    0.6068  -17.9190    4.5594 C   0  0  0  0  0  0  0  0  0  0  0  0
    0.2432  -18.2234    5.8643 C   0  0  0  0  0  0  0  0  0  0  0  0
    0.1156  -17.1884    6.7777 C   0  0  0  0  0  0  0  0  0  0  0  0
    0.2630  -15.8501    6.3573 C   0  0  0  0  0  0  0  0  0  0  0  0
    0.6125  -15.5130    5.0167 C   0  0  0  0  0  0  0  0  0  0  0  0
    1.3838  -12.7737    2.3887 C   0  0  0  0  0  0  0  0  0  0  0  0
    1.4359   -9.0150    2.9256 C   0  0  0  0  0  0  0  0  0  0  0  0
    1.6595   -4.6515    5.9470 C   0  0  0  0  0  0  0  0  0  0  0  0
    0.1084   -2.5076    9.5053 H   0  0  0  0  0  0  0  0  0  0  0  0
   -0.5521   -3.2695    8.0479 H   0  0  0  0  0  0  0  0  0  0  0  0
    0.1609   -1.6497    7.9643 H   0  0  0  0  0  0  0  0  0  0  0  0
    2.3848   -2.5390    8.5102 H   0  0  0  0  0  0  0  0  0  0  0  0
    1.0848   -5.2833    8.7493 H   0  0  0  0  0  0  0  0  0  0  0  0
    1.7368   -4.2832   10.0498 H   0  0  0  0  0  0  0  0  0  0  0  0
    2.8265   -4.9402    8.8222 H   0  0  0  0  0  0  0  0  0  0  0  0
    2.5511   -1.3837    6.4333 H   0  0  0  0  0  0  0  0  0  0  0  0
    3.0584   -1.5946    4.0369 H   0  0  0  0  0  0  0  0  0  0  0  0
    2.7329   -3.6910    2.8606 H   0  0  0  0  0  0  0  0  0  0  0  0
    1.4105   -6.7997    4.5645 H   0  0  0  0  0  0  0  0  0  0  0  0
    2.4607   -7.2155    0.1825 H   0  0  0  0  0  0  0  0  0  0  0  0
    2.1914   -9.3952   -0.8677 H   0  0  0  0  0  0  0  0  0  0  0  0
    1.4706  -11.3056    0.3874 H   0  0  0  0  0  0  0  0  0  0  0  0
   -0.1550  -10.8545    4.6724 H   0  0  0  0  0  0  0  0  0  0  0  0
    1.5536  -11.1204    5.0091 H   0  0  0  0  0  0  0  0  0  0  0  0
    0.7265  -12.8972    6.1510 H   0  0  0  0  0  0  0  0  0  0  0  0
   -0.7722  -12.9538    5.2330 H   0  0  0  0  0  0  0  0  0  0  0  0
    2.0144  -15.2002    1.4811 H   0  0  0  0  0  0  0  0  0  0  0  0
    0.7219  -18.7254    3.8362 H   0  0  0  0  0  0  0  0  0  0  0  0
    0.0921  -19.2613    6.1565 H   0  0  0  0  0  0  0  0  0  0  0  0
   -0.0983  -17.4272    7.8178 H   0  0  0  0  0  0  0  0  0  0  0  0
    0.1404  -15.0738    7.1069 H   0  0  0  0  0  0  0  0  0  0  0  0
    2.4407  -12.7012    2.0992 H   0  0  0  0  0  0  0  0  0  0  0  0
    0.7701  -12.9108    1.4879 H   0  0  0  0  0  0  0  0  0  0  0  0
    1.2222   -8.8942    3.9803 H   0  0  0  0  0  0  0  0  0  0  0  0
    1.2591   -5.5042    6.4880 H   0  0  0  0  0  0  0  0  0  0  0  0
  1  2  1  0  0  0  0
  1 33  1  0  0  0  0
  1 34  1  0  0  0  0
  1 35  1  0  0  0  0
  2  3  1  0  0  0  0
  2  4  1  0  0  0  0
  2 36  1  0  0  0  0
  3 37  1  0  0  0  0
  3 38  1  0  0  0  0
  3 39  1  0  0  0  0
  4  5  1  0  0  0  0
  4 32  2  0  0  0  0
  5  6  2  0  0  0  0
  5 40  1  0  0  0  0
  6  7  1  0  0  0  0
  6 41  1  0  0  0  0
  7  8  2  0  0  0  0
  7 42  1  0  0  0  0
  8  9  1  0  0  0  0
  8 32  1  0  0  0  0
  9 10  1  0  0  0  0
  9 43  1  0  0  0  0
 10 11  2  0  0  0  0
 10 12  1  0  0  0  0
 12 13  1  0  0  0  0
 12 31  2  0  0  0  0
 13 14  2  0  0  0  0
 13 44  1  0  0  0  0
 14 15  1  0  0  0  0
 14 45  1  0  0  0  0
 15 16  2  0  0  0  0
 15 46  1  0  0  0  0
 16 17  1  0  0  0  0
 16 31  1  0  0  0  0
 17 18  1  0  0  0  0
 17 30  1  0  0  0  0
 18 19  1  0  0  0  0
 18 47  1  0  0  0  0
 18 48  1  0  0  0  0
 19 20  1  0  0  0  0
 19 49  1  0  0  0  0
 19 50  1  0  0  0  0
 20 21  1  0  0  0  0
 20 29  2  0  0  0  0
 21 22  2  0  0  0  0
 21 30  1  0  0  0  0
 22 23  1  0  0  0  0
 22 51  1  0  0  0  0
 23 24  2  0  0  0  0
 24 25  1  0  0  0  0
 24 29  1  0  0  0  0
 25 26  2  0  0  0  0
 25 52  1  0  0  0  0
 26 27  1  0  0  0  0
 26 53  1  0  0  0  0
 27 28  2  0  0  0  0
 27 54  1  0  0  0  0
 28 29  1  0  0  0  0
 28 55  1  0  0  0  0
 30 56  1  0  0  0  0
 30 57  1  0  0  0  0
 31 58  1  0  0  0  0
 32 59  1  0  0  0  0
M  END
$$$$
