CHEMBL3955486
 OpenBabel04072215373D

 53 57  0  0  1  0  0  0  0  0999 V2000
    3.7646   -0.1011    1.3036 C   0  0  0  0  0  0  0  0  0  0  0  0
    2.9021    0.3072    0.2432 O   0  0  0  0  0  0  0  0  0  0  0  0
    3.3470    0.0912   -1.0316 C   0  0  0  0  0  0  0  0  0  0  0  0
    4.4191   -0.7594   -1.3134 C   0  0  0  0  0  0  0  0  0  0  0  0
    4.9419   -0.9031   -2.6114 C   0  0  0  0  0  0  0  0  0  0  0  0
    6.0307   -1.7430   -2.9168 C   0  0  0  0  0  0  0  0  0  0  0  0
    6.4975   -2.6164   -1.9027 N   0  0  0  0  0  0  0  0  0  0  0  0
    7.7875   -3.1406   -1.6760 C   0  0  0  0  0  0  0  0  0  0  0  0
    8.9425   -2.4467   -2.0502 C   0  0  0  0  0  0  0  0  0  0  0  0
   10.2003   -2.8995   -1.6451 C   0  0  0  0  0  0  0  0  0  0  0  0
   10.3085   -4.0567   -0.8792 C   0  0  0  0  0  0  0  0  0  0  0  0
   11.5273   -4.4454   -0.4723 F   0  0  0  0  0  0  0  0  0  0  0  0
    9.1784   -4.7842   -0.5208 C   0  0  0  0  0  0  0  0  0  0  0  0
    9.3186   -6.2208    0.4123 Cl  0  0  0  0  0  0  0  0  0  0  0  0
    7.9262   -4.3111   -0.9097 C   0  0  0  0  0  0  0  0  0  0  0  0
    6.8108   -4.9674   -0.5406 F   0  0  0  0  0  0  0  0  0  0  0  0
    6.5940   -1.7696   -4.1327 N   0  0  0  0  0  0  0  0  0  0  0  0
    6.0172   -0.9968   -5.0606 C   0  0  0  0  0  0  0  0  0  0  0  0
    4.9439   -0.2050   -4.8907 N   0  0  0  0  0  0  0  0  0  0  0  0
    4.4134   -0.1560   -3.6619 C   0  0  0  0  0  0  0  0  0  0  0  0
    3.3101    0.6576   -3.3798 C   0  0  0  0  0  0  0  0  0  0  0  0
    2.7442    0.7673   -2.0940 C   0  0  0  0  0  0  0  0  0  0  0  0
    1.7184    1.6721   -2.0042 O   0  0  0  0  0  0  0  0  0  0  0  0
    0.5518    1.3878   -1.2139 C   0  0  2  0  0  0  0  0  0  0  0  0
    0.5662    2.1295    0.1154 C   0  0  0  0  0  0  0  0  0  0  0  0
    0.0053    1.1411    1.0985 C   0  0  1  0  0  0  0  0  0  0  0  0
   -1.3173    1.4965    1.5296 O   0  0  0  0  0  0  0  0  0  0  0  0
   -1.9897    0.2456    1.7340 C   0  0  0  0  0  0  0  0  0  0  0  0
   -1.5485   -0.6260    0.5691 C   0  0  2  0  0  0  0  0  0  0  0  0
   -1.6907   -2.0050    0.9121 O   0  0  0  0  0  0  0  0  0  0  0  0
   -1.3697   -2.8704   -0.1707 C   0  0  0  0  0  0  0  0  0  0  0  0
   -0.0964   -0.1886    0.3732 C   0  0  1  0  0  0  0  0  0  0  0  0
    0.2238    0.0070   -1.0114 O   0  0  0  0  0  0  0  0  0  0  0  0
    3.2856    0.1579    2.2508 H   0  0  0  0  0  0  0  0  0  0  0  0
    4.7227    0.4282    1.2489 H   0  0  0  0  0  0  0  0  0  0  0  0
    3.9125   -1.1867    1.3080 H   0  0  0  0  0  0  0  0  0  0  0  0
    4.9153   -1.3010   -0.5153 H   0  0  0  0  0  0  0  0  0  0  0  0
    5.7601   -3.2552   -1.6184 H   0  0  0  0  0  0  0  0  0  0  0  0
    8.8693   -1.5259   -2.6261 H   0  0  0  0  0  0  0  0  0  0  0  0
   11.0951   -2.3424   -1.9055 H   0  0  0  0  0  0  0  0  0  0  0  0
    6.4602   -1.0125   -6.0523 H   0  0  0  0  0  0  0  0  0  0  0  0
    2.8807    1.2400   -4.1947 H   0  0  0  0  0  0  0  0  0  0  0  0
   -0.2811    1.7946   -1.8007 H   0  0  0  0  0  0  0  0  0  0  0  0
   -0.0238    3.0515    0.0596 H   0  0  0  0  0  0  0  0  0  0  0  0
    1.5816    2.4322    0.3897 H   0  0  0  0  0  0  0  0  0  0  0  0
    0.6250    1.0625    1.9983 H   0  0  0  0  0  0  0  0  0  0  0  0
   -3.0727    0.4000    1.7620 H   0  0  0  0  0  0  0  0  0  0  0  0
   -1.6862   -0.1742    2.7018 H   0  0  0  0  0  0  0  0  0  0  0  0
   -2.1617   -0.3987   -0.3131 H   0  0  0  0  0  0  0  0  0  0  0  0
   -1.5461   -3.9000    0.1530 H   0  0  0  0  0  0  0  0  0  0  0  0
   -0.3158   -2.7762   -0.4467 H   0  0  0  0  0  0  0  0  0  0  0  0
   -2.0083   -2.6609   -1.0337 H   0  0  0  0  0  0  0  0  0  0  0  0
    0.6107   -0.9215    0.7729 H   0  0  0  0  0  0  0  0  0  0  0  0
  1  2  1  0  0  0  0
  1 34  1  0  0  0  0
  1 35  1  0  0  0  0
  1 36  1  0  0  0  0
  2  3  1  0  0  0  0
  3  4  1  0  0  0  0
  3 22  2  0  0  0  0
  4  5  2  0  0  0  0
  4 37  1  0  0  0  0
  5  6  1  0  0  0  0
  5 20  1  0  0  0  0
  6  7  1  0  0  0  0
  6 17  2  0  0  0  0
  7  8  1  0  0  0  0
  7 38  1  0  0  0  0
  8  9  1  0  0  0  0
  8 15  2  0  0  0  0
  9 10  2  0  0  0  0
  9 39  1  0  0  0  0
 10 11  1  0  0  0  0
 10 40  1  0  0  0  0
 11 12  1  0  0  0  0
 11 13  2  0  0  0  0
 13 14  1  0  0  0  0
 13 15  1  0  0  0  0
 15 16  1  0  0  0  0
 17 18  1  0  0  0  0
 18 19  2  0  0  0  0
 18 41  1  0  0  0  0
 19 20  1  0  0  0  0
 20 21  2  0  0  0  0
 21 22  1  0  0  0  0
 21 42  1  0  0  0  0
 22 23  1  0  0  0  0
 23 24  1  0  0  0  0
 24 25  1  0  0  0  0
 24 33  1  0  0  0  0
 24 43  1  6  0  0  0
 25 26  1  0  0  0  0
 25 44  1  0  0  0  0
 25 45  1  0  0  0  0
 26 27  1  0  0  0  0
 26 32  1  0  0  0  0
 26 46  1  1  0  0  0
 27 28  1  0  0  0  0
 28 29  1  0  0  0  0
 28 47  1  0  0  0  0
 28 48  1  0  0  0  0
 29 30  1  0  0  0  0
 29 32  1  0  0  0  0
 29 49  1  6  0  0  0
 30 31  1  0  0  0  0
 31 50  1  0  0  0  0
 31 51  1  0  0  0  0
 31 52  1  0  0  0  0
 32 33  1  0  0  0  0
 32 53  1  1  0  0  0
M  END
$$$$
