CHEMBL4065008
 OpenBabel04072215383D

 53 58  0  0  0  0  0  0  0  0999 V2000
    0.1514   -0.5584   -0.4694 C   0  0  0  0  0  0  0  0  0  0  0  0
    1.1481   -0.2387    0.6181 C   0  0  0  0  0  0  0  0  0  0  0  0
    1.3021    0.9076    1.0307 O   0  0  0  0  0  0  0  0  0  0  0  0
    1.8195   -1.3092    1.1499 N   0  0  0  0  0  0  0  0  0  0  0  0
    2.6958   -1.1756    2.3212 C   0  0  0  0  0  0  0  0  0  0  0  0
    3.1628   -2.5914    2.5566 C   0  0  0  0  0  0  0  0  0  0  0  0
    3.9238   -3.0272    3.5657 N   0  0  0  0  0  0  0  0  0  0  0  0
    4.2368   -4.3358    3.4931 C   0  0  0  0  0  0  0  0  0  0  0  0
    3.8767   -5.1990    2.5187 N   0  0  0  0  0  0  0  0  0  0  0  0
    3.0864   -4.6951    1.5481 C   0  0  0  0  0  0  0  0  0  0  0  0
    2.7091   -5.4612    0.4600 O   0  0  0  0  0  0  0  0  0  0  0  0
    2.4096   -6.7907    0.6360 C   0  0  0  0  0  0  0  0  0  0  0  0
    1.9409   -7.3349    1.8274 C   0  0  0  0  0  0  0  0  0  0  0  0
    1.6442   -8.6952    1.9255 C   0  0  0  0  0  0  0  0  0  0  0  0
    1.8028   -9.4955    0.7821 C   0  0  0  0  0  0  0  0  0  0  0  0
    2.2662   -8.9692   -0.4275 C   0  0  0  0  0  0  0  0  0  0  0  0
    2.3896  -10.0473   -1.3408 C   0  0  0  0  0  0  0  0  0  0  0  0
    2.0854  -11.2032   -0.6591 C   0  0  0  0  0  0  0  0  0  0  0  0
    1.6653  -10.8730    0.6161 N   0  0  0  0  0  0  0  0  0  0  0  0
    1.2765  -11.7974    1.6025 C   0  0  0  0  0  0  0  0  0  0  0  0
    1.9389  -12.8040    1.7795 O   0  0  0  0  0  0  0  0  0  0  0  0
    0.0815  -11.4219    2.1721 N   0  0  0  0  0  0  0  0  0  0  0  0
   -0.4584  -12.2001    3.1750 C   0  0  0  0  0  0  0  0  0  0  0  0
    0.2017  -12.6533    4.3374 C   0  0  0  0  0  0  0  0  0  0  0  0
   -0.7351  -13.4112    4.9930 C   0  0  0  0  0  0  0  0  0  0  0  0
   -0.5092  -14.1267    6.3099 C   0  0  0  0  0  0  0  0  0  0  0  0
   -1.0875  -15.5137    6.4855 C   0  0  0  0  0  0  0  0  0  0  0  0
   -1.7000  -14.3669    7.2131 C   0  0  0  0  0  0  0  0  0  0  0  0
   -1.8913  -13.4035    4.2732 O   0  0  0  0  0  0  0  0  0  0  0  0
   -1.7396  -12.5759    3.1662 N   0  0  0  0  0  0  0  0  0  0  0  0
    2.5440   -7.5912   -0.5069 C   0  0  0  0  0  0  0  0  0  0  0  0
    2.7034   -3.3935    1.5392 C   0  0  0  0  0  0  0  0  0  0  0  0
    1.8490   -2.6567    0.5939 C   0  0  0  0  0  0  0  0  0  0  0  0
   -0.1596    0.3633   -0.9681 H   0  0  0  0  0  0  0  0  0  0  0  0
   -0.7253   -1.0320   -0.0176 H   0  0  0  0  0  0  0  0  0  0  0  0
    0.5791   -1.2210   -1.2258 H   0  0  0  0  0  0  0  0  0  0  0  0
    2.1281   -0.7764    3.1662 H   0  0  0  0  0  0  0  0  0  0  0  0
    3.5345   -0.5199    2.0690 H   0  0  0  0  0  0  0  0  0  0  0  0
    4.8400   -4.7396    4.2999 H   0  0  0  0  0  0  0  0  0  0  0  0
    1.8203   -6.7240    2.7174 H   0  0  0  0  0  0  0  0  0  0  0  0
    1.3446   -9.1134    2.8821 H   0  0  0  0  0  0  0  0  0  0  0  0
    2.7284   -9.9932   -2.3676 H   0  0  0  0  0  0  0  0  0  0  0  0
    2.0940  -12.2386   -0.9712 H   0  0  0  0  0  0  0  0  0  0  0  0
   -0.6018  -10.9715    1.5733 H   0  0  0  0  0  0  0  0  0  0  0  0
    1.2112  -12.4424    4.6553 H   0  0  0  0  0  0  0  0  0  0  0  0
    0.4508  -13.9418    6.7814 H   0  0  0  0  0  0  0  0  0  0  0  0
   -0.5048  -16.2285    7.0566 H   0  0  0  0  0  0  0  0  0  0  0  0
   -1.6427  -15.9571    5.6667 H   0  0  0  0  0  0  0  0  0  0  0  0
   -1.5428  -14.3005    8.2836 H   0  0  0  0  0  0  0  0  0  0  0  0
   -2.6814  -14.0342    6.8930 H   0  0  0  0  0  0  0  0  0  0  0  0
    2.9016   -7.1578   -1.4377 H   0  0  0  0  0  0  0  0  0  0  0  0
    0.8308   -3.0564    0.5497 H   0  0  0  0  0  0  0  0  0  0  0  0
    2.2912   -2.6164   -0.4098 H   0  0  0  0  0  0  0  0  0  0  0  0
  1  2  1  0  0  0  0
  1 34  1  0  0  0  0
  1 35  1  0  0  0  0
  1 36  1  0  0  0  0
  2  3  2  0  0  0  0
  2  4  1  0  0  0  0
  4  5  1  0  0  0  0
  4 33  1  0  0  0  0
  5  6  1  0  0  0  0
  5 37  1  0  0  0  0
  5 38  1  0  0  0  0
  6  7  1  0  0  0  0
  6 32  2  0  0  0  0
  7  8  2  0  0  0  0
  8  9  1  0  0  0  0
  8 39  1  0  0  0  0
  9 10  2  0  0  0  0
 10 11  1  0  0  0  0
 10 32  1  0  0  0  0
 11 12  1  0  0  0  0
 12 13  1  0  0  0  0
 12 31  2  0  0  0  0
 13 14  2  0  0  0  0
 13 40  1  0  0  0  0
 14 15  1  0  0  0  0
 14 41  1  0  0  0  0
 15 16  2  0  0  0  0
 15 19  1  0  0  0  0
 16 17  1  0  0  0  0
 16 31  1  0  0  0  0
 17 18  2  0  0  0  0
 17 42  1  0  0  0  0
 18 19  1  0  0  0  0
 18 43  1  0  0  0  0
 19 20  1  0  0  0  0
 20 21  2  0  0  0  0
 20 22  1  0  0  0  0
 22 23  1  0  0  0  0
 22 44  1  0  0  0  0
 23 24  1  0  0  0  0
 23 30  2  0  0  0  0
 24 25  2  0  0  0  0
 24 45  1  0  0  0  0
 25 26  1  0  0  0  0
 25 29  1  0  0  0  0
 26 27  1  0  0  0  0
 26 28  1  0  0  0  0
 26 46  1  0  0  0  0
 27 28  1  0  0  0  0
 27 47  1  0  0  0  0
 27 48  1  0  0  0  0
 28 49  1  0  0  0  0
 28 50  1  0  0  0  0
 29 30  1  0  0  0  0
 31 51  1  0  0  0  0
 32 33  1  0  0  0  0
 33 52  1  0  0  0  0
 33 53  1  0  0  0  0
M  END
$$$$
