CHEMBL387300
 OpenBabel04072215373D

 40 43  0  0  0  0  0  0  0  0999 V2000
    2.3932   -0.2529   -0.4170 C   0  0  0  0  0  0  0  0  0  0  0  0
    0.9157   -0.1225   -0.1860 C   0  0  0  0  0  0  0  0  0  0  0  0
    0.3416    1.1486   -0.0717 C   0  0  0  0  0  0  0  0  0  0  0  0
   -1.0239    1.2812    0.1416 C   0  0  0  0  0  0  0  0  0  0  0  0
   -1.8282    0.1457    0.2285 C   0  0  0  0  0  0  0  0  0  0  0  0
   -1.2896   -1.1369    0.0830 C   0  0  0  0  0  0  0  0  0  0  0  0
   -2.0983   -2.3073    0.1142 N   0  0  0  0  0  0  0  0  0  0  0  0
   -3.4656   -2.3050   -0.1319 C   0  0  0  0  0  0  0  0  0  0  0  0
   -4.0823   -1.3183   -0.5264 O   0  0  0  0  0  0  0  0  0  0  0  0
   -4.0575   -3.5339    0.1227 N   0  0  0  0  0  0  0  0  0  0  0  0
   -5.4068   -3.7128   -0.1079 C   0  0  0  0  0  0  0  0  0  0  0  0
   -6.2839   -4.7047    0.2720 C   0  0  0  0  0  0  0  0  0  0  0  0
   -7.5609   -4.3211   -0.2337 C   0  0  0  0  0  0  0  0  0  0  0  0
   -7.3757   -3.1468   -0.9392 C   0  0  0  0  0  0  0  0  0  0  0  0
   -8.4018   -2.3725   -1.6964 C   0  0  0  0  0  0  0  0  0  0  0  0
   -9.6949   -2.7291   -1.6869 N   0  0  0  0  0  0  0  0  0  0  0  0
  -10.3362   -1.8119   -2.5047 O   0  0  0  0  0  0  0  0  0  0  0  0
   -9.4303   -0.9236   -3.0005 C   0  0  0  0  0  0  0  0  0  0  0  0
   -9.7579    0.0680   -3.8435 N   0  0  0  0  0  0  0  0  0  0  0  0
   -8.6825    0.7829   -4.1882 C   0  0  0  0  0  0  0  0  0  0  0  0
   -7.4113    0.5997   -3.7875 N   0  0  0  0  0  0  0  0  0  0  0  0
   -7.1258   -0.4198   -2.9467 C   0  0  0  0  0  0  0  0  0  0  0  0
   -5.7970   -0.5912   -2.6306 N   0  0  0  0  0  0  0  0  0  0  0  0
   -8.1759   -1.2313   -2.5087 C   0  0  0  0  0  0  0  0  0  0  0  0
   -6.0670   -2.7919   -0.8535 O   0  0  0  0  0  0  0  0  0  0  0  0
    0.0934   -1.2646   -0.1008 C   0  0  0  0  0  0  0  0  0  0  0  0
    2.8827    0.7280   -0.4289 H   0  0  0  0  0  0  0  0  0  0  0  0
    2.5857   -0.7318   -1.3818 H   0  0  0  0  0  0  0  0  0  0  0  0
    2.8521   -0.8416    0.3828 H   0  0  0  0  0  0  0  0  0  0  0  0
    0.9532    2.0448   -0.1468 H   0  0  0  0  0  0  0  0  0  0  0  0
   -1.4729    2.2664    0.2367 H   0  0  0  0  0  0  0  0  0  0  0  0
   -2.8857    0.3025    0.4179 H   0  0  0  0  0  0  0  0  0  0  0  0
   -1.6202   -3.1926    0.0319 H   0  0  0  0  0  0  0  0  0  0  0  0
   -3.5716   -4.2136    0.6854 H   0  0  0  0  0  0  0  0  0  0  0  0
   -6.0573   -5.5838    0.8562 H   0  0  0  0  0  0  0  0  0  0  0  0
   -8.5000   -4.8468   -0.1193 H   0  0  0  0  0  0  0  0  0  0  0  0
   -8.8478    1.6021   -4.8806 H   0  0  0  0  0  0  0  0  0  0  0  0
   -5.2119    0.2074   -2.8349 H   0  0  0  0  0  0  0  0  0  0  0  0
   -5.5407   -1.0907   -1.7756 H   0  0  0  0  0  0  0  0  0  0  0  0
    0.5473   -2.2466   -0.2078 H   0  0  0  0  0  0  0  0  0  0  0  0
  1  2  1  0  0  0  0
  1 27  1  0  0  0  0
  1 28  1  0  0  0  0
  1 29  1  0  0  0  0
  2  3  1  0  0  0  0
  2 26  2  0  0  0  0
  3  4  2  0  0  0  0
  3 30  1  0  0  0  0
  4  5  1  0  0  0  0
  4 31  1  0  0  0  0
  5  6  2  0  0  0  0
  5 32  1  0  0  0  0
  6  7  1  0  0  0  0
  6 26  1  0  0  0  0
  7  8  1  0  0  0  0
  7 33  1  0  0  0  0
  8  9  2  0  0  0  0
  8 10  1  0  0  0  0
 10 11  1  0  0  0  0
 10 34  1  0  0  0  0
 11 12  2  0  0  0  0
 11 25  1  0  0  0  0
 12 13  1  0  0  0  0
 12 35  1  0  0  0  0
 13 14  2  0  0  0  0
 13 36  1  0  0  0  0
 14 15  1  0  0  0  0
 14 25  1  0  0  0  0
 15 16  2  0  0  0  0
 15 24  1  0  0  0  0
 16 17  1  0  0  0  0
 17 18  1  0  0  0  0
 18 19  1  0  0  0  0
 18 24  2  0  0  0  0
 19 20  2  0  0  0  0
 20 21  1  0  0  0  0
 20 37  1  0  0  0  0
 21 22  2  0  0  0  0
 22 23  1  0  0  0  0
 22 24  1  0  0  0  0
 23 38  1  0  0  0  0
 23 39  1  0  0  0  0
 26 40  1  0  0  0  0
M  END
$$$$
