CHEMBL226471
 OpenBabel04072215363D

 37 40  0  0  0  0  0  0  0  0999 V2000
    5.4854   -0.2236   -1.6159 O   0  0  0  0  0  0  0  0  0  0  0  0
    4.4690   -0.0869   -0.9449 C   0  0  0  0  0  0  0  0  0  0  0  0
    3.7310   -1.1744   -0.5375 N   0  0  0  0  0  0  0  0  0  0  0  0
    2.4724   -1.1526    0.2010 C   0  0  0  0  0  0  0  0  0  0  0  0
    1.9477    0.2127    0.6954 C   0  0  0  0  0  0  0  0  0  0  0  0
    2.8070    1.3220    0.2269 C   0  0  0  0  0  0  0  0  0  0  0  0
    2.5874    2.6489    0.4660 N   0  0  0  0  0  0  0  0  0  0  0  0
    3.5925    3.4046   -0.1117 C   0  0  0  0  0  0  0  0  0  0  0  0
    3.6237    4.8656   -0.0374 C   0  0  0  0  0  0  0  0  0  0  0  0
    4.1952    5.6278   -1.0527 C   0  0  0  0  0  0  0  0  0  0  0  0
    4.1532    7.0061   -0.9427 C   0  0  0  0  0  0  0  0  0  0  0  0
    3.5781    7.6662    0.0862 N   0  0  0  0  0  0  0  0  0  0  0  0
    3.0150    6.9264    1.0740 C   0  0  0  0  0  0  0  0  0  0  0  0
    2.3480    7.6790    2.1536 C   0  0  0  0  0  0  0  0  0  0  0  0
    2.8071    8.9517    2.5407 C   0  0  0  0  0  0  0  0  0  0  0  0
    2.1742    9.6772    3.5571 C   0  0  0  0  0  0  0  0  0  0  0  0
    1.0638    9.1474    4.2096 C   0  0  0  0  0  0  0  0  0  0  0  0
    0.5871    7.8932    3.8453 C   0  0  0  0  0  0  0  0  0  0  0  0
    1.2217    7.1784    2.8303 C   0  0  0  0  0  0  0  0  0  0  0  0
    0.7012    5.9830    2.5057 F   0  0  0  0  0  0  0  0  0  0  0  0
    3.0562    5.5340    1.0496 C   0  0  0  0  0  0  0  0  0  0  0  0
    4.4471    2.5090   -0.7382 C   0  0  0  0  0  0  0  0  0  0  0  0
    3.9557    1.1972   -0.5195 C   0  0  0  0  0  0  0  0  0  0  0  0
    4.0973   -2.0576   -0.8658 H   0  0  0  0  0  0  0  0  0  0  0  0
    2.6025   -1.8261    1.0557 H   0  0  0  0  0  0  0  0  0  0  0  0
    1.7234   -1.6203   -0.4479 H   0  0  0  0  0  0  0  0  0  0  0  0
    1.9047    0.2121    1.7910 H   0  0  0  0  0  0  0  0  0  0  0  0
    0.9201    0.3559    0.3404 H   0  0  0  0  0  0  0  0  0  0  0  0
    1.7991    3.0293    0.9737 H   0  0  0  0  0  0  0  0  0  0  0  0
    4.6520    5.1671   -1.9215 H   0  0  0  0  0  0  0  0  0  0  0  0
    4.5841    7.6378   -1.7153 H   0  0  0  0  0  0  0  0  0  0  0  0
    3.6724    9.3880    2.0424 H   0  0  0  0  0  0  0  0  0  0  0  0
    2.5500   10.6597    3.8326 H   0  0  0  0  0  0  0  0  0  0  0  0
    0.5678    9.7123    4.9940 H   0  0  0  0  0  0  0  0  0  0  0  0
   -0.2806    7.4641    4.3364 H   0  0  0  0  0  0  0  0  0  0  0  0
    2.6526    4.9704    1.8831 H   0  0  0  0  0  0  0  0  0  0  0  0
    5.3430    2.7625   -1.2911 H   0  0  0  0  0  0  0  0  0  0  0  0
  1  2  2  0  0  0  0
  2  3  1  0  0  0  0
  2 23  1  0  0  0  0
  3  4  1  0  0  0  0
  3 24  1  0  0  0  0
  4  5  1  0  0  0  0
  4 25  1  0  0  0  0
  4 26  1  0  0  0  0
  5  6  1  0  0  0  0
  5 27  1  0  0  0  0
  5 28  1  0  0  0  0
  6  7  1  0  0  0  0
  6 23  2  0  0  0  0
  7  8  1  0  0  0  0
  7 29  1  0  0  0  0
  8  9  1  0  0  0  0
  8 22  2  0  0  0  0
  9 10  1  0  0  0  0
  9 21  2  0  0  0  0
 10 11  2  0  0  0  0
 10 30  1  0  0  0  0
 11 12  1  0  0  0  0
 11 31  1  0  0  0  0
 12 13  2  0  0  0  0
 13 14  1  0  0  0  0
 13 21  1  0  0  0  0
 14 15  1  0  0  0  0
 14 19  2  0  0  0  0
 15 16  2  0  0  0  0
 15 32  1  0  0  0  0
 16 17  1  0  0  0  0
 16 33  1  0  0  0  0
 17 18  2  0  0  0  0
 17 34  1  0  0  0  0
 18 19  1  0  0  0  0
 18 35  1  0  0  0  0
 19 20  1  0  0  0  0
 21 36  1  0  0  0  0
 22 23  1  0  0  0  0
 22 37  1  0  0  0  0
M  END
$$$$
