CHEMBL3694664
 OpenBabel04072215373D

 66 70  0  0  0  0  0  0  0  0999 V2000
    2.4674    0.4338    0.3258 N   0  0  0  0  0  0  0  0  0  0  0  0
    3.7138    0.8282    0.9649 C   0  0  0  0  0  0  0  0  0  0  0  0
    4.6075   -0.3200    1.4805 C   0  0  0  0  0  0  0  0  0  0  0  0
    5.1007   -1.2940    0.3910 C   0  0  0  0  0  0  0  0  0  0  0  0
    4.3605   -2.6312    0.2585 C   0  0  0  0  0  0  0  0  0  0  0  0
    4.0039   -3.1883    1.5614 N   0  0  0  0  0  0  0  0  0  0  0  0
    4.6142   -4.2985    2.1210 C   0  0  0  0  0  0  0  0  0  0  0  0
    5.1184   -5.3350    1.3313 C   0  0  0  0  0  0  0  0  0  0  0  0
    5.7158   -6.4627    1.9107 C   0  0  0  0  0  0  0  0  0  0  0  0
    5.8077   -6.5616    3.2929 C   0  0  0  0  0  0  0  0  0  0  0  0
    6.4292   -7.7384    3.9259 C   0  0  0  0  0  0  0  0  0  0  0  0
    5.6623   -8.9454    4.2395 C   0  0  0  0  0  0  0  0  0  0  0  0
    6.2889  -10.0256    4.7463 C   0  0  0  0  0  0  0  0  0  0  0  0
    7.6666   -9.9954    4.9516 N   0  0  0  0  0  0  0  0  0  0  0  0
    8.5485  -10.9869    5.3749 C   0  0  0  0  0  0  0  0  0  0  0  0
    8.2469  -12.4002    5.6447 C   0  0  0  0  0  0  0  0  0  0  0  0
    8.9224  -13.0535    6.6841 C   0  0  0  0  0  0  0  0  0  0  0  0
    8.7320  -14.4138    6.9096 C   0  0  0  0  0  0  0  0  0  0  0  0
    7.8325  -15.1349    6.1269 C   0  0  0  0  0  0  0  0  0  0  0  0
    7.1063  -14.5112    5.1123 C   0  0  0  0  0  0  0  0  0  0  0  0
    6.1387  -15.1877    4.3261 N   0  0  0  0  0  0  0  0  0  0  0  0
    5.7577  -16.5051    4.4626 C   0  0  0  0  0  0  0  0  0  0  0  0
    6.1738  -17.3124    5.2829 O   0  0  0  0  0  0  0  0  0  0  0  0
    4.8398  -16.8964    3.5109 N   0  0  0  0  0  0  0  0  0  0  0  0
    4.3677  -18.2902    3.5561 C   0  0  0  0  0  0  0  0  0  0  0  0
    3.3214  -18.6212    4.6335 C   0  0  0  0  0  0  0  0  0  0  0  0
    2.8556  -17.5105    5.2496 F   0  0  0  0  0  0  0  0  0  0  0  0
    2.2497  -19.2262    4.0598 F   0  0  0  0  0  0  0  0  0  0  0  0
    3.7946  -19.4618    5.5762 F   0  0  0  0  0  0  0  0  0  0  0  0
    7.3504  -13.1501    4.8556 C   0  0  0  0  0  0  0  0  0  0  0  0
    9.7641  -10.3165    5.4734 C   0  0  0  0  0  0  0  0  0  0  0  0
    9.6782   -9.0145    5.0676 N   0  0  0  0  0  0  0  0  0  0  0  0
    8.4224   -8.8429    4.7268 C   0  0  0  0  0  0  0  0  0  0  0  0
    7.7570   -7.7011    4.1849 C   0  0  0  0  0  0  0  0  0  0  0  0
    5.2577   -5.5170    4.0200 C   0  0  0  0  0  0  0  0  0  0  0  0
    4.6729   -4.4155    3.4696 N   0  0  0  0  0  0  0  0  0  0  0  0
    3.2344   -2.2863    2.4098 C   0  0  0  0  0  0  0  0  0  0  0  0
    4.0475   -1.0362    2.7210 C   0  0  0  0  0  0  0  0  0  0  0  0
    1.9743    1.2835    0.0405 H   0  0  0  0  0  0  0  0  0  0  0  0
    1.8514   -0.0091    1.0044 H   0  0  0  0  0  0  0  0  0  0  0  0
    3.4796    1.5020    1.7994 H   0  0  0  0  0  0  0  0  0  0  0  0
    4.2887    1.4284    0.2484 H   0  0  0  0  0  0  0  0  0  0  0  0
    5.5074    0.2097    1.8283 H   0  0  0  0  0  0  0  0  0  0  0  0
    6.1484   -1.5283    0.6230 H   0  0  0  0  0  0  0  0  0  0  0  0
    5.1218   -0.7983   -0.5882 H   0  0  0  0  0  0  0  0  0  0  0  0
    4.9963   -3.3000   -0.3312 H   0  0  0  0  0  0  0  0  0  0  0  0
    3.4439   -2.4953   -0.3266 H   0  0  0  0  0  0  0  0  0  0  0  0
    5.0228   -5.3100    0.2524 H   0  0  0  0  0  0  0  0  0  0  0  0
    6.0937   -7.2558    1.2708 H   0  0  0  0  0  0  0  0  0  0  0  0
    4.5926   -8.9491    4.0556 H   0  0  0  0  0  0  0  0  0  0  0  0
    5.7494  -10.9265    5.0064 H   0  0  0  0  0  0  0  0  0  0  0  0
    9.6179  -12.5170    7.3263 H   0  0  0  0  0  0  0  0  0  0  0  0
    9.2821  -14.9219    7.6976 H   0  0  0  0  0  0  0  0  0  0  0  0
    7.7336  -16.1944    6.3411 H   0  0  0  0  0  0  0  0  0  0  0  0
    5.6844  -14.6544    3.6004 H   0  0  0  0  0  0  0  0  0  0  0  0
    4.1738  -16.1986    3.2106 H   0  0  0  0  0  0  0  0  0  0  0  0
    5.2378  -18.9432    3.6995 H   0  0  0  0  0  0  0  0  0  0  0  0
    3.9615  -18.5132    2.5648 H   0  0  0  0  0  0  0  0  0  0  0  0
    6.8519  -12.6762    4.0153 H   0  0  0  0  0  0  0  0  0  0  0  0
   10.7089  -10.7324    5.8011 H   0  0  0  0  0  0  0  0  0  0  0  0
    8.3660   -6.8271    3.9701 H   0  0  0  0  0  0  0  0  0  0  0  0
    5.2612   -5.5282    5.1072 H   0  0  0  0  0  0  0  0  0  0  0  0
    2.8951   -2.7569    3.3398 H   0  0  0  0  0  0  0  0  0  0  0  0
    2.3166   -2.0103    1.8774 H   0  0  0  0  0  0  0  0  0  0  0  0
    4.8988   -1.3290    3.3492 H   0  0  0  0  0  0  0  0  0  0  0  0
    3.4461   -0.3450    3.3231 H   0  0  0  0  0  0  0  0  0  0  0  0
  1  2  1  0  0  0  0
  1 39  1  0  0  0  0
  1 40  1  0  0  0  0
  2  3  1  0  0  0  0
  2 41  1  0  0  0  0
  2 42  1  0  0  0  0
  3  4  1  0  0  0  0
  3 38  1  0  0  0  0
  3 43  1  0  0  0  0
  4  5  1  0  0  0  0
  4 44  1  0  0  0  0
  4 45  1  0  0  0  0
  5  6  1  0  0  0  0
  5 46  1  0  0  0  0
  5 47  1  0  0  0  0
  6  7  1  0  0  0  0
  6 37  1  0  0  0  0
  7  8  1  0  0  0  0
  7 36  2  0  0  0  0
  8  9  2  0  0  0  0
  8 48  1  0  0  0  0
  9 10  1  0  0  0  0
  9 49  1  0  0  0  0
 10 11  1  0  0  0  0
 10 35  2  0  0  0  0
 11 12  1  0  0  0  0
 11 34  2  0  0  0  0
 12 13  2  0  0  0  0
 12 50  1  0  0  0  0
 13 14  1  0  0  0  0
 13 51  1  0  0  0  0
 14 15  1  0  0  0  0
 14 33  1  0  0  0  0
 15 16  1  0  0  0  0
 15 31  2  0  0  0  0
 16 17  1  0  0  0  0
 16 30  2  0  0  0  0
 17 18  2  0  0  0  0
 17 52  1  0  0  0  0
 18 19  1  0  0  0  0
 18 53  1  0  0  0  0
 19 20  2  0  0  0  0
 19 54  1  0  0  0  0
 20 21  1  0  0  0  0
 20 30  1  0  0  0  0
 21 22  1  0  0  0  0
 21 55  1  0  0  0  0
 22 23  2  0  0  0  0
 22 24  1  0  0  0  0
 24 25  1  0  0  0  0
 24 56  1  0  0  0  0
 25 26  1  0  0  0  0
 25 57  1  0  0  0  0
 25 58  1  0  0  0  0
 26 27  1  0  0  0  0
 26 28  1  0  0  0  0
 26 29  1  0  0  0  0
 30 59  1  0  0  0  0
 31 32  1  0  0  0  0
 31 60  1  0  0  0  0
 32 33  2  0  0  0  0
 33 34  1  0  0  0  0
 34 61  1  0  0  0  0
 35 36  1  0  0  0  0
 35 62  1  0  0  0  0
 37 38  1  0  0  0  0
 37 63  1  0  0  0  0
 37 64  1  0  0  0  0
 38 65  1  0  0  0  0
 38 66  1  0  0  0  0
M  END
$$$$
