CHEMBL1940853
 OpenBabel04072215363D

 36 38  0  0  0  0  0  0  0  0999 V2000
    0.8386   -0.0037   -0.0479 C   0  0  0  0  0  0  0  0  0  0  0  0
    2.3348    0.0248    0.0314 C   0  0  0  0  0  0  0  0  0  0  0  0
    3.0502    1.2227    0.0132 C   0  0  0  0  0  0  0  0  0  0  0  0
    4.4439    1.2074    0.1103 C   0  0  0  0  0  0  0  0  0  0  0  0
    5.1388   -0.0157    0.1828 C   0  0  0  0  0  0  0  0  0  0  0  0
    6.5445   -0.0938    0.2246 C   0  0  0  0  0  0  0  0  0  0  0  0
    7.2073   -1.3336    0.2033 C   0  0  0  0  0  0  0  0  0  0  0  0
    8.6919   -1.3013    0.2229 C   0  0  0  0  0  0  0  0  0  0  0  0
    9.5302   -2.1852   -0.3484 C   0  0  0  0  0  0  0  0  0  0  0  0
   11.0293   -2.0418   -0.2683 C   0  0  0  0  0  0  0  0  0  0  0  0
   11.4901   -1.1012    0.3627 O   0  0  0  0  0  0  0  0  0  0  0  0
   11.8442   -3.0367   -0.9722 C   0  0  0  0  0  0  0  0  0  0  0  0
   11.4942   -4.1339   -1.7444 C   0  0  0  0  0  0  0  0  0  0  0  0
   12.6230   -4.8235   -2.2792 C   0  0  0  0  0  0  0  0  0  0  0  0
   13.8116   -4.2261   -1.9245 C   0  0  0  0  0  0  0  0  0  0  0  0
   15.1967   -4.6123   -2.3119 C   0  0  0  0  0  0  0  0  0  0  0  0
   13.5572   -2.8712   -0.9165 S   0  0  0  0  0  0  0  0  0  0  0  0
    6.3696   -2.4528    0.2102 C   0  0  0  0  0  0  0  0  0  0  0  0
    6.9097   -4.0892    0.1960 Cl  0  0  0  0  0  0  0  0  0  0  0  0
    5.0173   -2.4150    0.2169 N   0  0  0  0  0  0  0  0  0  0  0  0
    4.4185   -1.2219    0.1879 C   0  0  0  0  0  0  0  0  0  0  0  0
    3.0365   -1.1820    0.1372 C   0  0  0  0  0  0  0  0  0  0  0  0
    0.4284    0.9900   -0.2494 H   0  0  0  0  0  0  0  0  0  0  0  0
    0.4221   -0.3645    0.8979 H   0  0  0  0  0  0  0  0  0  0  0  0
    0.5172   -0.6683   -0.8571 H   0  0  0  0  0  0  0  0  0  0  0  0
    2.5308    2.1732   -0.0833 H   0  0  0  0  0  0  0  0  0  0  0  0
    4.9834    2.1520    0.1035 H   0  0  0  0  0  0  0  0  0  0  0  0
    7.1194    0.8316    0.2434 H   0  0  0  0  0  0  0  0  0  0  0  0
    9.1137   -0.4254    0.7261 H   0  0  0  0  0  0  0  0  0  0  0  0
    9.1830   -3.0331   -0.9074 H   0  0  0  0  0  0  0  0  0  0  0  0
   10.4759   -4.4406   -1.9521 H   0  0  0  0  0  0  0  0  0  0  0  0
   12.5605   -5.7028   -2.9104 H   0  0  0  0  0  0  0  0  0  0  0  0
   15.1923   -5.5280   -2.9122 H   0  0  0  0  0  0  0  0  0  0  0  0
   15.8142   -4.7930   -1.4263 H   0  0  0  0  0  0  0  0  0  0  0  0
   15.6632   -3.8220   -2.9099 H   0  0  0  0  0  0  0  0  0  0  0  0
    2.4930   -2.1250    0.1600 H   0  0  0  0  0  0  0  0  0  0  0  0
  1  2  1  0  0  0  0
  1 23  1  0  0  0  0
  1 24  1  0  0  0  0
  1 25  1  0  0  0  0
  2  3  1  0  0  0  0
  2 22  2  0  0  0  0
  3  4  2  0  0  0  0
  3 26  1  0  0  0  0
  4  5  1  0  0  0  0
  4 27  1  0  0  0  0
  5  6  1  0  0  0  0
  5 21  2  0  0  0  0
  6  7  2  0  0  0  0
  6 28  1  0  0  0  0
  7  8  1  0  0  0  0
  7 18  1  0  0  0  0
  8  9  2  0  0  0  0
  8 29  1  0  0  0  0
  9 10  1  0  0  0  0
  9 30  1  0  0  0  0
 10 11  2  0  0  0  0
 10 12  1  0  0  0  0
 12 13  2  0  0  0  0
 12 17  1  0  0  0  0
 13 14  1  0  0  0  0
 13 31  1  0  0  0  0
 14 15  2  0  0  0  0
 14 32  1  0  0  0  0
 15 16  1  0  0  0  0
 15 17  1  0  0  0  0
 16 33  1  0  0  0  0
 16 34  1  0  0  0  0
 16 35  1  0  0  0  0
 18 19  1  0  0  0  0
 18 20  2  0  0  0  0
 20 21  1  0  0  0  0
 21 22  1  0  0  0  0
 22 36  1  0  0  0  0
M  END
$$$$
