
  Mrv1801 04076521243D          

 47 49  0  0  0  0            999 V2000
    0.2356   -8.1881   -1.9002 C   0  0  0  0  0  0  0  0  0  0  0  0
   -0.6789   -8.7051   -1.0291 N   0  0  0  0  0  0  0  0  0  0  0  0
   -1.2542   -7.9498   -0.0522 C   0  0  0  0  0  0  0  0  0  0  0  0
   -0.8797   -6.5984    0.0439 C   0  0  0  0  0  0  0  0  0  0  0  0
    0.0486   -6.0946   -0.8576 C   0  0  0  0  0  0  0  0  0  0  0  0
    0.6016   -6.8806   -1.8164 N   0  0  0  0  0  0  0  0  0  0  0  0
    0.2210   -4.7927   -0.5770 N   0  0  0  0  0  0  0  0  0  0  0  0
   -0.5760   -4.5255    0.4823 C   0  0  0  0  0  0  0  0  0  0  0  0
   -1.2605   -5.6191    0.8762 N   0  0  0  0  0  0  0  0  0  0  0  0
    1.0332   -3.8713   -1.3163 C   0  0  1  0  0  0  0  0  0  0  0  0
    0.2247   -3.2328   -2.4681 C   0  0  1  0  0  0  0  0  0  0  0  0
    0.8833   -1.8589   -2.5873 C   0  0  2  0  0  0  0  0  0  0  0  0
    1.2499   -1.5529   -1.1166 C   0  0  1  0  0  0  0  0  0  0  0  0
    1.5803   -2.8132   -0.5099 O   0  0  0  0  0  0  0  0  0  0  0  0
    2.3910   -0.5118   -0.9735 C   0  0  1  0  0  0  0  0  0  0  0  0
    3.0379   -0.6388    0.3106 O   0  0  0  0  0  0  0  0  0  0  0  0
    4.2238    0.3930    0.6165 P   0  0  2  0  0  0  0  0  0  0  0  0
    3.8936    1.0785    1.8738 O   0  0  0  0  0  0  0  0  0  0  0  0
    4.3658    1.5049   -0.5088 O   0  0  0  0  0  0  0  0  0  0  0  0
    5.6481   -0.3076    0.8242 O   0  0  0  0  0  0  0  0  0  0  0  0
    6.0313   -1.6962    0.1300 P   0  0  1  0  0  0  0  0  0  0  0  0
    6.4089   -2.6266    1.2053 O   0  0  0  0  0  0  0  0  0  0  0  0
    4.8728   -2.3869   -0.6982 O   0  0  0  0  0  0  0  0  0  0  0  0
    7.3154   -1.5337   -0.8094 O   0  0  0  0  0  0  0  0  0  0  0  0
    7.2604   -0.4533   -1.9815 P   0  0  2  0  0  0  0  0  0  0  0  0
    8.3952   -0.6755   -2.8858 O   0  0  0  0  0  0  0  0  0  0  0  0
    7.3720    1.0027   -1.3693 O   0  0  0  0  0  0  0  0  0  0  0  0
    5.9181   -0.5574   -2.8139 O   0  0  0  0  0  0  0  0  0  0  0  0
    0.0207   -0.8794   -3.1606 O   0  0  0  0  0  0  0  0  0  0  0  0
    0.3081   -3.9886   -3.6748 O   0  0  0  0  0  0  0  0  0  0  0  0
   -2.1555   -8.4943    0.7814 N   0  0  0  0  0  0  0  0  0  0  0  0
    0.6766   -8.8237   -2.6680 H   0  0  0  0  0  0  0  0  0  0  0  0
   -0.6566   -3.5489    0.9597 H   0  0  0  0  0  0  0  0  0  0  0  0
    1.8803   -4.4828   -1.6270 H   0  0  0  0  0  0  0  0  0  0  0  0
   -0.8584   -3.2184   -2.3466 H   0  0  0  0  0  0  0  0  0  0  0  0
    1.7000   -1.7964   -3.3065 H   0  0  0  0  0  0  0  0  0  0  0  0
    0.4018   -1.1496   -0.5632 H   0  0  0  0  0  0  0  0  0  0  0  0
    3.1594   -0.7572   -1.7067 H   0  0  0  0  0  0  0  0  0  0  0  0
    1.9385    0.4798   -0.9693 H   0  0  0  0  0  0  0  0  0  0  0  0
    4.4737    1.0826   -1.3641 H   0  0  0  0  0  0  0  0  0  0  0  0
    4.2319   -2.7691   -0.0943 H   0  0  0  0  0  0  0  0  0  0  0  0
    7.3678    0.9480   -0.4108 H   0  0  0  0  0  0  0  0  0  0  0  0
    5.1722   -0.6152   -2.2123 H   0  0  0  0  0  0  0  0  0  0  0  0
   -0.4134   -0.3864   -2.4606 H   0  0  0  0  0  0  0  0  0  0  0  0
    0.2938   -4.9257   -3.4670 H   0  0  0  0  0  0  0  0  0  0  0  0
   -2.9467   -7.9505    1.0948 H   0  0  0  0  0  0  0  0  0  0  0  0
   -2.0420   -9.4477    1.0948 H   0  0  0  0  0  0  0  0  0  0  0  0
  1  2  2  0  0  0  0
  2  3  1  0  0  0  0
  3  4  2  0  0  0  0
  4  5  1  0  0  0  0
  5  6  2  0  0  0  0
  1  6  1  0  0  0  0
  5  7  1  0  0  0  0
  7  8  1  0  0  0  0
  8  9  2  0  0  0  0
  4  9  1  0  0  0  0
  7 10  1  0  0  0  0
 10 11  1  0  0  0  0
 11 12  1  0  0  0  0
 12 13  1  0  0  0  0
 13 14  1  0  0  0  0
 10 14  1  0  0  0  0
 13 15  1  0  0  0  0
 15 16  1  0  0  0  0
 16 17  1  0  0  0  0
 17 18  2  0  0  0  0
 17 19  1  0  0  0  0
 17 20  1  0  0  0  0
 20 21  1  0  0  0  0
 21 22  2  0  0  0  0
 21 23  1  0  0  0  0
 21 24  1  0  0  0  0
 24 25  1  0  0  0  0
 25 26  2  0  0  0  0
 25 27  1  0  0  0  0
 25 28  1  0  0  0  0
 12 29  1  0  0  0  0
 11 30  1  0  0  0  0
  3 31  1  0  0  0  0
  1 32  1  0  0  0  0
  8 33  1  0  0  0  0
 10 34  1  0  0  0  0
 11 35  1  0  0  0  0
 12 36  1  0  0  0  0
 13 37  1  0  0  0  0
 15 38  1  0  0  0  0
 15 39  1  0  0  0  0
 19 40  1  0  0  0  0
 23 41  1  0  0  0  0
 27 42  1  0  0  0  0
 28 43  1  0  0  0  0
 29 44  1  0  0  0  0
 30 45  1  0  0  0  0
 31 46  1  0  0  0  0
 31 47  1  0  0  0  0
M  END
$$$$
